2024_89_CemigReconfigurationCases/1_AlimsCemig/MNM08/MNM08SegmentosMT.dss
new line.TR10464483 bus1=BMT170355709.3,bus2=BMT6725455B.3,Phases=1,Linecode=CAB202_3_1,Length=0.133258000,Units=km
new line.TR10464490 bus1=BMT6725455B.3,bus2=BMT6725511B.3,Phases=1,Linecode=CAB202_3_1,Length=0.109166000,Units=km
new line.TR10464497 bus1=BMT6725511B.3,bus2=BMT6725525B.3,Phases=1,Linecode=CAB202_3_1,Length=0.130350000,Units=km
new line.TR10464504 bus1=BMT6725525B.3,bus2=BMT6725553B.3,Phases=1,Linecode=CAB202_3_1,Length=0.131188000,Units=km
new line.TR10464511 bus1=BMT6725553B.3,bus2=BMT6725560B.3,Phases=1,Linecode=CAB202_3_1,Length=0.101455000,Units=km
new line.TR10464518 bus1=BMT6725560B.3,bus2=BMT6725595B.3,Phases=1,Linecode=CAB202_3_1,Length=0.111201000,Units=km
new line.TR10464525 bus1=BMT6725595B.3,bus2=BMT170355710.3,Phases=1,Linecode=CAB202_3_1,Length=0.113044000,Units=km
new line.TR10464532 bus1=BMT170355710.3,bus2=BMT6725616B.3,Phases=1,Linecode=CAB202_3_1,Length=0.085876000,Units=km
new line.TR10464539 bus1=BMT6725616B.3,bus2=BMT6725637B.3,Phases=1,Linecode=CAB202_3_1,Length=0.113578000,Units=km
new line.TR10464546 bus1=BMT6725637B.3,bus2=BMT6725686B.3,Phases=1,Linecode=CAB202_3_1,Length=0.200078000,Units=km
new line.TR11267103 bus1=BMT130867354.3,bus2=BMT1529076B.3,Phases=1,Linecode=CABA06_3_1,Length=0.028804000,Units=km
new line.TR11267110 bus1=BMT1529076B.3,bus2=BMT1529062B.3,Phases=1,Linecode=CABA06_3_1,Length=0.023779000,Units=km
new line.TR11267117 bus1=BMT1529062B.3,bus2=BMT130867382.3,Phases=1,Linecode=CABA06_3_1,Length=0.038290000,Units=km
new line.TR11383261 bus1=BMT101737071.1,bus2=BMT101737085.1,Phases=1,Linecode=CAB103_3_1,Length=0.073363000,Units=km
new line.TR11423245 bus1=BMT152554244.1.2.3,bus2=BMT101729966.1.2.3,Phases=3,Linecode=CAB104_3_3,Length=0.012047000,Units=km
new line.TR11423280 bus1=BMT1328316B.1.2.3,bus2=BMT152554244.1.2.3,Phases=3,Linecode=CAB104_3_3,Length=0.021222000,Units=km
new line.TR11423322 bus1=BMT152554243.1.2.3,bus2=BMT1328316B.1.2.3,Phases=3,Linecode=CAB104_3_3,Length=0.008066000,Units=km
new line.TR11423329 bus1=BMT152554244.1.2.3,bus2=BMT152554245.1.2.3,Phases=3,Linecode=CAB104_3_3,Length=0.033149000,Units=km
new line.TR11434851 bus1=BMT155239533.1.2.3,bus2=BMT7639970B.1.2.3,Phases=3,Linecode=CAB103_3_3,Length=0.011710000,Units=km
new line.TR11434914 bus1=BMT7639970B.1.2.3,bus2=BMT155239535.1.2.3,Phases=3,Linecode=CAB103_3_3,Length=0.043675000,Units=km
new line.TR11853045 bus1=BMT161334826.3,bus2=BMT8011572B.3,Phases=1,Linecode=CAB202_3_1,Length=0.019243000,Units=km
new line.TR11853108 bus1=BMT8011572B.3,bus2=BMT161334827.3,Phases=1,Linecode=CAB202_3_1,Length=0.142143000,Units=km
new line.TR11856293 bus1=BMT155239532.1.2.3,bus2=BMT1531673B.1.2.3,Phases=3,Linecode=CABA06_3_3,Length=0.034190000,Units=km
new line.TR11856300 bus1=BMT1531673B.1.2.3,bus2=BMT1531666B.1.2.3,Phases=3,Linecode=CABA06_3_3,Length=0.034190000,Units=km
new line.TR11856307 bus1=BMT1531666B.1.2.3,bus2=BMT1531652B.1.2.3,Phases=3,Linecode=CABA06_3_3,Length=0.032324000,Units=km
new line.TR11856314 bus1=BMT1531652B.1.2.3,bus2=BMT1531638B.1.2.3,Phases=3,Linecode=CABA06_3_3,Length=0.006711000,Units=km
new line.TR11856321 bus1=BMT1531652B.1.2.3,bus2=BMT155239534.1.2.3,Phases=3,Linecode=CABA06_3_3,Length=0.036784000,Units=km
new line.TR11973431 bus1=BMT177302265.1.2.3,bus2=BMT177302271.1.2.3,Phases=3,Linecode=CABA06_3_3,Length=0.025642000,Units=km
new line.TR12011126 bus1=BMT175581670.1.2.3,bus2=BMT1536209B.1.2.3,Phases=3,Linecode=CABA06_3_3,Length=0.038913000,Units=km
new line.TR12011133 bus1=BMT1536209B.1.2.3,bus2=BMT1536202B.1.2.3,Phases=3,Linecode=CABA06_3_3,Length=0.017727000,Units=km
new line.TR12011140 bus1=BMT1536202B.1.2.3,bus2=BMT175581614.1.2.3,Phases=3,Linecode=CABA06_3_3,Length=0.024051000,Units=km
new line.TR12011147 bus1=BMT175581614.1.2.3,bus2=BMT1535544B.1.2.3,Phases=3,Linecode=CABA06_3_3,Length=0.023096000,Units=km
new line.TR12011154 bus1=BMT1535544B.1.2.3,bus2=BMT175581673.1.2.3,Phases=3,Linecode=CABA06_3_3,Length=0.034496000,Units=km
new line.TR12126719 bus1=BMT177302261.1.2.3,bus2=BMT2540884B.1.2.3,Phases=3,Linecode=CABA06_3_3,Length=0.029744000,Units=km
new line.TR12126720 bus1=BMT2540884B.1.2.3,bus2=BMT177302262.1.2.3,Phases=3,Linecode=CABA06_3_3,Length=0.032907000,Units=km
new line.TR12132267 bus1=BMT161630323.3,bus2=BMT8725918B.3,Phases=1,Linecode=CAB202_3_1,Length=0.051010000,Units=km
new line.TR12132268 bus1=BMT8725918B.3,bus2=BMT8725921B.3,Phases=1,Linecode=CAB202_3_1,Length=0.104357000,Units=km
new line.TR12132269 bus1=BMT8725921B.3,bus2=BMT8725925B.3,Phases=1,Linecode=CAB202_3_1,Length=0.182284000,Units=km
new line.TR12132270 bus1=BMT8725925B.3,bus2=BMT8725927B.3,Phases=1,Linecode=CAB202_3_1,Length=0.127191000,Units=km
new line.TR12132271 bus1=BMT8725927B.3,bus2=BMT8725928B.3,Phases=1,Linecode=CAB202_3_1,Length=0.118253000,Units=km
new line.TR12132272 bus1=BMT8725928B.3,bus2=BMT161630325.3,Phases=1,Linecode=CAB202_3_1,Length=0.124956000,Units=km
new line.TR12207304 bus1=BMT1529699B.1.2.3,bus2=BMT174274781.1.2.3,Phases=3,Linecode=CAB102_3_3,Length=0.018035000,Units=km
new line.TR12207305 bus1=BMT174274781.1.2.3,bus2=BMT101736154.1.2.3,Phases=3,Linecode=CAB102_3_3,Length=0.012047000,Units=km
new line.TR12207310 bus1=BMT174274781.1.2.3,bus2=BMT1529720B.1.2.3,Phases=3,Linecode=CABA06_3_3,Length=0.034028000,Units=km
new line.TR12207311 bus1=BMT1529720B.1.2.3,bus2=BMT174274643.1.2.3,Phases=3,Linecode=CABA06_3_3,Length=0.032324000,Units=km
new line.TR12207312 bus1=BMT176164032.1.2.3,bus2=BMT1537707B.1.2.3,Phases=3,Linecode=CABA06_3_3,Length=0.035861000,Units=km
new line.TR12207313 bus1=BMT1537707B.1.2.3,bus2=BMT176164033.1.2.3,Phases=3,Linecode=CABA06_3_3,Length=0.029558000,Units=km
new line.TR12207327 bus1=BMT176164033.1.2.3,bus2=BMT8808426B.1.2.3,Phases=3,Linecode=CABA06_3_3,Length=0.049416000,Units=km
new line.TR12207328 bus1=BMT8808426B.1.2.3,bus2=BMT8808427B.1.2.3,Phases=3,Linecode=CABA06_3_3,Length=0.015303000,Units=km
new line.TR12207329 bus1=BMT8808427B.1.2.3,bus2=BMT151633349.1.2.3,Phases=3,Linecode=CABA06_3_3,Length=0.017212000,Units=km
new line.TR12207330 bus1=BMT151635209.1.2.3,bus2=BMT151635210.1.2.3,Phases=3,Linecode=CABA06_3_3,Length=0.009438000,Units=km
new line.TR12207501 bus1=BMT151738129.1.2.3,bus2=BMT8808630B.1.2.3,Phases=3,Linecode=CAB103_3_3,Length=0.076410000,Units=km
new line.TR12207502 bus1=BMT8808630B.1.2.3,bus2=BMT8808631B.1.2.3,Phases=3,Linecode=CAB103_3_3,Length=0.079240000,Units=km
new line.TR12207503 bus1=BMT8808631B.1.2.3,bus2=BMT8808633B.1.2.3,Phases=3,Linecode=CAB103_3_3,Length=0.079240000,Units=km
new line.TR12207504 bus1=BMT8808633B.1.2.3,bus2=BMT8808635B.1.2.3,Phases=3,Linecode=CAB103_3_3,Length=0.029166000,Units=km
new line.TR12207505 bus1=BMT8808635B.1.2.3,bus2=BMT8808636B.1.2.3,Phases=3,Linecode=CAB103_3_3,Length=0.079227000,Units=km
new line.TR12207513 bus1=BMT8808636B.1.2.3,bus2=BMT8808639B.1.2.3,Phases=3,Linecode=CAB103_3_3,Length=0.080642000,Units=km
new line.TR12207524 bus1=BMT8808642B.1.2.3,bus2=BMT8808643B.1.2.3,Phases=3,Linecode=CAB103_3_3,Length=0.080691000,Units=km
new line.TR12207525 bus1=BMT8808643B.1.2.3,bus2=BMT8808644B.1.2.3,Phases=3,Linecode=CAB103_3_3,Length=0.030012000,Units=km
new line.TR12207526 bus1=BMT8808644B.1.2.3,bus2=BMT8808646B.1.2.3,Phases=3,Linecode=CAB103_3_3,Length=0.045140000,Units=km
new line.TR12207527 bus1=BMT8808646B.1.2.3,bus2=BMT8808647B.1.2.3,Phases=3,Linecode=CAB103_3_3,Length=0.080113000,Units=km
new line.TR12207528 bus1=BMT8808647B.1.2.3,bus2=BMT8808648B.1.2.3,Phases=3,Linecode=CAB103_3_3,Length=0.075216000,Units=km
new line.TR12207529 bus1=BMT8808648B.1.2.3,bus2=BMT8808651B.1.2.3,Phases=3,Linecode=CAB103_3_3,Length=0.036139000,Units=km
new line.TR12207531 bus1=BMT8808651B.1.2.3,bus2=BMT151738130.1.2.3,Phases=3,Linecode=CAB103_3_3,Length=0.060901000,Units=km
new line.TR12210956 bus1=BMT8808639B.1.2.3,bus2=BMT8808642B.1.2.3,Phases=3,Linecode=CAB103_3_3,Length=0.080654000,Units=km
new line.TR12221992 bus1=BMT101729966.1.2.3,bus2=BMT152157061.1.2.3,Phases=3,Linecode=CAB104_3_3,Length=0.011185000,Units=km
new line.TR12221993 bus1=BMT152157061.1.2.3,bus2=BMT1328330B.1.2.3,Phases=3,Linecode=CAB104_3_3,Length=0.012047000,Units=km
new line.TR12221998 bus1=BMT171693766.1.2.3,bus2=BMT171693767.1.2.3,Phases=3,Linecode=CAB902_4_3,Length=0.010054000,Units=km
new line.TR12281881 bus1=BMT1530168B.1.2.3,bus2=BMT154164077.1.2.3,Phases=3,Linecode=CAB102_3_3,Length=0.023779000,Units=km
new line.TR12281882 bus1=BMT154164077.1.2.3,bus2=BMT1530154B.1.2.3,Phases=3,Linecode=CAB102_3_3,Length=0.013934000,Units=km
new line.TR12291867 bus1=BMT176400700.1.2.3,bus2=BMT2312187B.1.2.3,Phases=3,Linecode=CABA06_3_3,Length=0.031029000,Units=km
new line.TR12291875 bus1=BMT2312187B.1.2.3,bus2=BMT2312201B.1.2.3,Phases=3,Linecode=CABA06_3_3,Length=0.035128000,Units=km
new line.TR12291876 bus1=BMT2312201B.1.2.3,bus2=BMT2312859B.1.2.3,Phases=3,Linecode=CABA06_3_3,Length=0.034190000,Units=km
new line.TR12291877 bus1=BMT2312859B.1.2.3,bus2=BMT2312866B.1.2.3,Phases=3,Linecode=CABA06_3_3,Length=0.035482000,Units=km
new line.TR12291879 bus1=BMT2312866B.1.2.3,bus2=BMT3815164B.1.2.3,Phases=3,Linecode=CABA06_3_3,Length=0.040870000,Units=km
new line.TR12291880 bus1=BMT3815164B.1.2.3,bus2=BMT3815171B.1.2.3,Phases=3,Linecode=CABA06_3_3,Length=0.039941000,Units=km
new line.TR12291881 bus1=BMT3815171B.1.2.3,bus2=BMT6462808B.1.2.3,Phases=3,Linecode=CABA06_3_3,Length=0.041802000,Units=km
new line.TR12291882 bus1=BMT6462808B.1.2.3,bus2=BMT176400701.1.2.3,Phases=3,Linecode=CABA06_3_3,Length=0.037015000,Units=km
new line.TR12313187 bus1=BMT155239533.1.2.3,bus2=BMT155239503.1.2.3,Phases=3,Linecode=CAB102_3_3,Length=0.023096000,Units=km
new line.TR12313188 bus1=BMT178456424.1.2.3,bus2=BMT178456425.1.2.3,Phases=3,Linecode=CAB102_3_3,Length=0.026316000,Units=km
new line.TR12412942 bus1=BMT2261983B.3,bus2=BMT158683008.3,Phases=1,Linecode=CAB202_3_1,Length=0.047442000,Units=km
new line.TR12412943 bus1=BMT158683008.3,bus2=BMT158683009.3,Phases=1,Linecode=CAB202_3_1,Length=0.021032000,Units=km
new line.TR12412944 bus1=BMT158683008.3,bus2=BMT9019355B.3,Phases=1,Linecode=CAB202_3_1,Length=0.126200000,Units=km
new line.TR12412954 bus1=BMT9019355B.3,bus2=BMT158683010.3,Phases=1,Linecode=CAB202_3_1,Length=0.091277000,Units=km
new line.TR12412955 bus1=BMT158683010.3,bus2=BMT158683011.3,Phases=1,Linecode=CAB103_3_1,Length=0.040327000,Units=km
new line.TR12483458 bus1=BMT161630546.3,bus2=BMT9093320B.3,Phases=1,Linecode=CAB202_3_1,Length=0.082597000,Units=km
new line.TR12483459 bus1=BMT9093320B.3,bus2=BMT9093325B.3,Phases=1,Linecode=CAB202_3_1,Length=0.174383000,Units=km
new line.TR12483460 bus1=BMT9093325B.3,bus2=BMT9093328B.3,Phases=1,Linecode=CAB202_3_1,Length=0.050349000,Units=km
new line.TR12483461 bus1=BMT9093328B.3,bus2=BMT9093331B.3,Phases=1,Linecode=CAB202_3_1,Length=0.129777000,Units=km
new line.TR12483463 bus1=BMT9093331B.3,bus2=BMT9093332B.3,Phases=1,Linecode=CAB202_3_1,Length=0.127611000,Units=km
new line.TR12483464 bus1=BMT9093332B.3,bus2=BMT9093333B.3,Phases=1,Linecode=CAB202_3_1,Length=0.129023000,Units=km
new line.TR12483465 bus1=BMT9093333B.3,bus2=BMT9093334B.3,Phases=1,Linecode=CAB202_3_1,Length=0.129022000,Units=km
new line.TR12483468 bus1=BMT9093334B.3,bus2=BMT161630547.3,Phases=1,Linecode=CAB202_3_1,Length=0.127611000,Units=km
new line.TR12552227 bus1=BMT6725686B.3,bus2=BMT170355711.3,Phases=1,Linecode=CAB202_3_1,Length=0.046192000,Units=km
new line.TR12552228 bus1=BMT170355711.3,bus2=BMT170355713.3,Phases=1,Linecode=CAB202_3_1,Length=0.068291000,Units=km
new line.TR12552229 bus1=BMT170355711.3,bus2=BMT9161083B.3,Phases=1,Linecode=CAB103_3_1,Length=0.036415000,Units=km
new line.TR12552230 bus1=BMT9161083B.3,bus2=BMT9161084B.3,Phases=1,Linecode=CAB103_3_1,Length=0.049060000,Units=km
new line.TR12552231 bus1=BMT9161084B.3,bus2=BMT170355714.3,Phases=1,Linecode=CAB103_3_1,Length=0.040624000,Units=km
new line.TR12689446 bus1=BMT176505135.1.2.3,bus2=BMT1410615B.1.2.3,Phases=3,Linecode=CABA06_3_3,Length=0.044962000,Units=km
new line.TR12689447 bus1=BMT1410615B.1.2.3,bus2=BMT1410629B.1.2.3,Phases=3,Linecode=CABA06_3_3,Length=0.035861000,Units=km
new line.TR12689448 bus1=BMT1410629B.1.2.3,bus2=BMT2440217B.1.2.3,Phases=3,Linecode=CABA06_3_3,Length=0.039411000,Units=km
new line.TR12689449 bus1=BMT2440217B.1.2.3,bus2=BMT2440245B.1.2.3,Phases=3,Linecode=CABA06_3_3,Length=0.037711000,Units=km
new line.TR12689450 bus1=BMT2440245B.1.2.3,bus2=BMT2440252B.1.2.3,Phases=3,Linecode=CABA06_3_3,Length=0.039015000,Units=km
new line.TR12689451 bus1=BMT2440252B.1.2.3,bus2=BMT176505136.1.2.3,Phases=3,Linecode=CABA06_3_3,Length=0.041802000,Units=km
new line.TR12720301 bus1=BMT170355710.3,bus2=BMT170355712.3,Phases=1,Linecode=CAB202_3_1,Length=0.121311000,Units=km
new line.TR12720870 bus1=BMT178456435.2,bus2=BMT178456437.2,Phases=1,Linecode=CAB103_3_1,Length=0.029012000,Units=km
new line.TR12721959 bus1=BMT170420094.1.2.3,bus2=BMT9328998B.1.2.3,Phases=3,Linecode=CABA06_3_3,Length=0.033255000,Units=km
new line.TR12721960 bus1=BMT9328998B.1.2.3,bus2=BMT170420095.1.2.3,Phases=3,Linecode=CABA06_3_3,Length=0.008250000,Units=km
new line.TR12726001 bus1=BMT176515431.1.2.3,bus2=BMT1529503B.1.2.3,Phases=3,Linecode=CABA06_3_3,Length=0.034554000,Units=km
new line.TR12726002 bus1=BMT1529503B.1.2.3,bus2=BMT176515433.1.2.3,Phases=3,Linecode=CABA06_3_3,Length=0.037711000,Units=km
new line.TR12758759 bus1=BMT171693767.1.2.3,bus2=BMT9364289B.1.2.3,Phases=3,Linecode=CAB902_4_3,Length=0.014872000,Units=km
new line.TR12758760 bus1=BMT9364289B.1.2.3,bus2=BMT171693768.1.2.3,Phases=3,Linecode=CAB902_4_3,Length=0.013044000,Units=km
new line.TR12821035 bus1=BMT101736868.3,bus2=BMT178456434.3,Phases=1,Linecode=CAB202_3_1,Length=0.084092000,Units=km
new line.TR12823950 bus1=BMT2775601B.1,bus2=BMT173911946.1,Phases=1,Linecode=CAB202_3_1,Length=0.085509000,Units=km
new line.TR12823951 bus1=BMT173911946.1,bus2=BMT173911947.1,Phases=1,Linecode=CAB202_3_1,Length=0.013898000,Units=km
new line.TR12823952 bus1=BMT173911946.1,bus2=BMT173911948.1,Phases=1,Linecode=CAB202_3_1,Length=0.097675000,Units=km
new line.TR12878452 bus1=BMT175582003.1.2.3,bus2=BMT175582004.1.2.3,Phases=3,Linecode=CABA06_3_3,Length=0.014219000,Units=km
new line.TR12890454 bus1=BMT1529986B.1.2.3,bus2=BMT176505174.1.2.3,Phases=3,Linecode=CAB103_3_3,Length=0.029423000,Units=km
new line.TR12890455 bus1=BMT176505174.1.2.3,bus2=BMT1530021B.1.2.3,Phases=3,Linecode=CABA06_3_3,Length=0.031966000,Units=km
new line.TR12890478 bus1=BMT1530021B.1.2.3,bus2=BMT1530049B.1.2.3,Phases=3,Linecode=CABA06_3_3,Length=0.033255000,Units=km
new line.TR12890479 bus1=BMT1530049B.1.2.3,bus2=BMT1530056B.1.2.3,Phases=3,Linecode=CABA06_3_3,Length=0.035128000,Units=km
new line.TR12890485 bus1=BMT1530056B.1.2.3,bus2=BMT1530805B.1.2.3,Phases=3,Linecode=CABA06_3_3,Length=0.037351000,Units=km
new line.TR12890487 bus1=BMT1530805B.1.2.3,bus2=BMT1530833B.1.2.3,Phases=3,Linecode=CABA06_3_3,Length=0.029845000,Units=km
new line.TR12890488 bus1=BMT1530833B.1.2.3,bus2=BMT1530854B.1.2.3,Phases=3,Linecode=CABA06_3_3,Length=0.031397000,Units=km
new line.TR12890489 bus1=BMT1530854B.1.2.3,bus2=BMT1530875B.1.2.3,Phases=3,Linecode=CABA06_3_3,Length=0.032907000,Units=km
new line.TR12890490 bus1=BMT1530875B.1.2.3,bus2=BMT1530889B.1.2.3,Phases=3,Linecode=CABA06_3_3,Length=0.031966000,Units=km
new line.TR12890493 bus1=BMT1530889B.1.2.3,bus2=BMT1530903B.1.2.3,Phases=3,Linecode=CABA06_3_3,Length=0.030475000,Units=km
new line.TR12890494 bus1=BMT1530903B.1.2.3,bus2=BMT176505173.1.2.3,Phases=3,Linecode=CABA06_3_3,Length=0.038642000,Units=km
new line.TR12890512 bus1=BMT176505171.1.2.3,bus2=BMT9475732B.1.2.3,Phases=3,Linecode=CABA06_3_3,Length=0.035482000,Units=km
new line.TR12890513 bus1=BMT9475732B.1.2.3,bus2=BMT176505172.1.2.3,Phases=3,Linecode=CABA06_3_3,Length=0.038094000,Units=km
new line.TR12890621 bus1=BMT177024038.1.2.3,bus2=BMT177024040.1.2.3,Phases=3,Linecode=CABA08_3_3,Length=0.033629000,Units=km
new line.TR12896704 bus1=BMT176164033.1.2.3,bus2=BMT1537721B.1.2.3,Phases=3,Linecode=CABA06_3_3,Length=0.021941000,Units=km
new line.TR12896705 bus1=BMT1537721B.1.2.3,bus2=BMT176164034.1.2.3,Phases=3,Linecode=CABA06_3_3,Length=0.033629000,Units=km
new line.TR12903074 bus1=BMT176505488.1.2.3,bus2=BMT1536706B.1.2.3,Phases=3,Linecode=CABA06_3_3,Length=0.027868000,Units=km
new line.TR12903078 bus1=BMT1536706B.1.2.3,bus2=BMT1536713B.1.2.3,Phases=3,Linecode=CABA06_3_3,Length=0.031397000,Units=km
new line.TR12903079 bus1=BMT1536713B.1.2.3,bus2=BMT176505490.1.2.3,Phases=3,Linecode=CABA06_3_3,Length=0.032907000,Units=km
new line.TR12903080 bus1=BMT178323957.1.2.3,bus2=BMT1529762B.1.2.3,Phases=3,Linecode=CABA06_3_3,Length=0.040265000,Units=km
new line.TR12903081 bus1=BMT1529762B.1.2.3,bus2=BMT1529769B.1.2.3,Phases=3,Linecode=CABA06_3_3,Length=0.033851000,Units=km
new line.TR12903082 bus1=BMT1529769B.1.2.3,bus2=BMT1529776B.1.2.3,Phases=3,Linecode=CABA06_3_3,Length=0.035128000,Units=km
new line.TR12903083 bus1=BMT1529776B.1.2.3,bus2=BMT178323958.1.2.3,Phases=3,Linecode=CABA06_3_3,Length=0.038290000,Units=km
new line.TR12948505 bus1=BMT177573689.1.2.3,bus2=BMT177573690.1.2.3,Phases=3,Linecode=CAB102_3_3,Length=0.010445000,Units=km
new line.TR12957348 bus1=BMT1527963B.1.2.3,bus2=BMT177831478.1.2.3,Phases=3,Linecode=CAB103_3_3,Length=0.011667000,Units=km
new line.TR12957350 bus1=BMT177831478.1.2.3,bus2=BMT1527956B.1.2.3,Phases=3,Linecode=CAB103_3_3,Length=0.032324000,Units=km
new line.TR12957353 bus1=BMT177831478.1.2.3,bus2=BMT177831480.1.2.3,Phases=3,Linecode=CABA06_3_3,Length=0.045559000,Units=km
new line.TR12971189 bus1=BMT1528880B.1.2.3,bus2=BMT1528887B.1.2.3,Phases=3,Linecode=CABA06_3_3,Length=0.016499000,Units=km
new line.TR12971193 bus1=BMT1528880B.1.2.3,bus2=BMT1528866B.1.2.3,Phases=3,Linecode=CABA06_3_3,Length=0.015818000,Units=km
new line.TR12971194 bus1=BMT1528866B.1.2.3,bus2=BMT1528852B.1.2.3,Phases=3,Linecode=CABA06_3_3,Length=0.031966000,Units=km
new line.TR12971195 bus1=BMT1528852B.1.2.3,bus2=BMT178200004.1.2.3,Phases=3,Linecode=CABA06_3_3,Length=0.033255000,Units=km
new line.TR12971197 bus1=BMT1528880B.1.2.3,bus2=BMT1528901B.1.2.3,Phases=3,Linecode=CABA06_3_3,Length=0.017471000,Units=km
new line.TR12971216 bus1=BMT178200003.1.2.3,bus2=BMT9551086B.1.2.3,Phases=3,Linecode=CABA06_3_3,Length=0.009438000,Units=km
new line.TR12971217 bus1=BMT9551086B.1.2.3,bus2=BMT1528880B.1.2.3,Phases=3,Linecode=CABA06_3_3,Length=0.009438000,Units=km
new line.TR12980266 bus1=BMT178456433.1,bus2=BMT9559601B.1,Phases=1,Linecode=CAB103_3_1,Length=0.045625000,Units=km
new line.TR12980268 bus1=BMT9559601B.1,bus2=BMT9559604B.1,Phases=1,Linecode=CAB103_3_1,Length=0.046419000,Units=km
new line.TR12980269 bus1=BMT9559604B.1,bus2=BMT178456436.1,Phases=1,Linecode=CAB103_3_1,Length=0.045625000,Units=km
new line.TR1995526 bus1=BMT152554245.1.2.3,bus2=BMT152554246.1.2.3,Phases=3,Linecode=CAB103_3_3,Length=0.036236000,Units=km
new line.TR1995596 bus1=BMT1328330B.1.2.3,bus2=BMT1537434B.1.2.3,Phases=3,Linecode=CAB104_3_3,Length=0.032153000,Units=km
new line.TR1995624 bus1=BMT93723527.1.2.3,bus2=BMT101737330.1.2.3,Phases=3,Linecode=CAB104_3_3,Length=0.053058000,Units=km
new line.TR2106217 bus1=BMT1410594B.1.2.3,bus2=BMT176505135.1.2.3,Phases=3,Linecode=CABA06_3_3,Length=0.028029000,Units=km
new line.TR2106224 bus1=BMT1410601B.1.2.3,bus2=BMT1410594B.1.2.3,Phases=3,Linecode=CABA06_3_3,Length=0.032324000,Units=km
new line.TR2106238 bus1=BMT1410608B.1.2.3,bus2=BMT1410601B.1.2.3,Phases=3,Linecode=CABA06_3_3,Length=0.030688000,Units=km
new line.TR2107526 bus1=BMT1411490B.1.2.3,bus2=BMT101736700.1.2.3,Phases=3,Linecode=CAB103_3_3,Length=0.037498000,Units=km
new line.TR2107540 bus1=BMT101736700.1.2.3,bus2=BMT1411532B.1.2.3,Phases=3,Linecode=CAB103_3_3,Length=0.036084000,Units=km
new line.TR2107554 bus1=BMT1411504B.1.2.3,bus2=BMT1411490B.1.2.3,Phases=3,Linecode=CAB103_3_3,Length=0.024769000,Units=km
new line.TR2107575 bus1=BMT1411511B.1.2.3,bus2=BMT1411504B.1.2.3,Phases=3,Linecode=CAB103_3_3,Length=0.029012000,Units=km
new line.TR2107589 bus1=BMT1411518B.1.2.3,bus2=BMT1411511B.1.2.3,Phases=3,Linecode=CAB103_3_3,Length=0.026918000,Units=km
new line.TR2107603 bus1=BMT101736693.1.2.3,bus2=BMT1411518B.1.2.3,Phases=3,Linecode=CAB103_3_3,Length=0.035242000,Units=km
new line.TR2107617 bus1=BMT1411532B.1.2.3,bus2=BMT3214025B.1.2.3,Phases=3,Linecode=CAB103_3_3,Length=0.025466000,Units=km
new line.TR2107631 bus1=BMT1411539B.1.2.3,bus2=BMT101736707.1.2.3,Phases=3,Linecode=CAB103_3_3,Length=0.019807000,Units=km
new line.TR2107645 bus1=BMT101736707.1.2.3,bus2=BMT1411553B.1.2.3,Phases=3,Linecode=CAB103_3_3,Length=0.075984000,Units=km
new line.TR2107652 bus1=BMT101736735.1,bus2=BMT3733642B.1,Phases=1,Linecode=CABA06_3_1,Length=0.039941000,Units=km
new line.TR2107666 bus1=BMT1411553B.1.2.3,bus2=BMT101736714.1.2.3,Phases=3,Linecode=CAB103_3_3,Length=0.066056000,Units=km
new line.TR2107680 bus1=BMT101736714.1.2.3,bus2=BMT1411567B.1.2.3,Phases=3,Linecode=CAB103_3_3,Length=0.070462000,Units=km
new line.TR2107687 bus1=BMT101736714.2,bus2=BMT101736728.2,Phases=1,Linecode=CAB103_3_1,Length=0.045471000,Units=km
new line.TR2107701 bus1=BMT1411567B.1.2.3,bus2=BMT1411686B.1.2.3,Phases=3,Linecode=CAB103_3_3,Length=0.073907000,Units=km
new line.TR2107834 bus1=BMT1411630B.1.2.3,bus2=BMT101736721.1.2.3,Phases=3,Linecode=CAB103_3_3,Length=0.058212000,Units=km
new line.TR2107855 bus1=BMT1411637B.1.2.3,bus2=BMT1411630B.1.2.3,Phases=3,Linecode=CAB103_3_3,Length=0.070866000,Units=km
new line.TR2107876 bus1=BMT1411644B.1.2.3,bus2=BMT1411637B.1.2.3,Phases=3,Linecode=CAB103_3_3,Length=0.071533000,Units=km
new line.TR2107890 bus1=BMT1411651B.1.2.3,bus2=BMT1411644B.1.2.3,Phases=3,Linecode=CAB103_3_3,Length=0.065973000,Units=km
new line.TR2107904 bus1=BMT1411658B.1.2.3,bus2=BMT1411651B.1.2.3,Phases=3,Linecode=CAB103_3_3,Length=0.070866000,Units=km
new line.TR2107918 bus1=BMT1411665B.1.2.3,bus2=BMT1411658B.1.2.3,Phases=3,Linecode=CAB103_3_3,Length=0.069453000,Units=km
new line.TR2107932 bus1=BMT1411672B.1.2.3,bus2=BMT1411665B.1.2.3,Phases=3,Linecode=CAB103_3_3,Length=0.070866000,Units=km
new line.TR2107939 bus1=BMT1411679B.1.2.3,bus2=BMT1411672B.1.2.3,Phases=3,Linecode=CAB103_3_3,Length=0.069453000,Units=km
new line.TR2107946 bus1=BMT1411686B.1.2.3,bus2=BMT1411679B.1.2.3,Phases=3,Linecode=CAB103_3_3,Length=0.071617000,Units=km
new line.TR2111012 bus1=BMT173810563.1,bus2=BMT3392511B.1,Phases=1,Linecode=CAB202_3_1,Length=0.120388000,Units=km
new line.TR2115226 bus1=BMT101737330.1.2.3,bus2=BMT101737337.1.2.3,Phases=3,Linecode=CAB104_3_3,Length=0.045195000,Units=km
new line.TR2132551 bus1=BMT177302258.1.2.3,bus2=BMT1428094B.1.2.3,Phases=3,Linecode=CABA06_3_3,Length=0.034190000,Units=km
new line.TR2132558 bus1=BMT177302258.1.2.3,bus2=BMT177302261.1.2.3,Phases=3,Linecode=CAB102_3_3,Length=0.006406000,Units=km
new line.TR2132572 bus1=BMT1428094B.1.2.3,bus2=BMT1428108B.1.2.3,Phases=3,Linecode=CABA06_3_3,Length=0.031333000,Units=km
new line.TR2132593 bus1=BMT1428108B.1.2.3,bus2=BMT177302260.1.2.3,Phases=3,Linecode=CABA06_3_3,Length=0.030688000,Units=km
new line.TR2132614 bus1=BMT1428115B.1.2.3,bus2=BMT101736623.1.2.3,Phases=3,Linecode=CAB102_3_3,Length=0.028243000,Units=km
new line.TR2132621 bus1=BMT177302260.1.2.3,bus2=BMT1428129B.1.2.3,Phases=3,Linecode=CABA06_3_3,Length=0.023096000,Units=km
new line.TR2132635 bus1=BMT1428129B.1.2.3,bus2=BMT1428136B.1.2.3,Phases=3,Linecode=CABA06_3_3,Length=0.035482000,Units=km
new line.TR2132768 bus1=BMT1428206B.1.2.3,bus2=BMT177302258.1.2.3,Phases=3,Linecode=CAB102_3_3,Length=0.038642000,Units=km
new line.TR2139572 bus1=BMT177302256.1.2.3,bus2=BMT177302257.1.2.3,Phases=3,Linecode=CAB102_3_3,Length=0.044616000,Units=km
new line.TR2139593 bus1=BMT177302257.1.2.3,bus2=BMT1428206B.1.2.3,Phases=3,Linecode=CAB102_3_3,Length=0.027214000,Units=km
new line.TR2139600 bus1=BMT177302257.1.2.3,bus2=BMT1432385B.1.2.3,Phases=3,Linecode=CABA06_3_3,Length=0.029845000,Units=km
new line.TR2139614 bus1=BMT1432385B.1.2.3,bus2=BMT1432392B.1.2.3,Phases=3,Linecode=CABA06_3_3,Length=0.027868000,Units=km
new line.TR2139628 bus1=BMT1432392B.1.2.3,bus2=BMT1432399B.1.2.3,Phases=3,Linecode=CABA06_3_3,Length=0.030688000,Units=km
new line.TR2139642 bus1=BMT1432399B.1.2.3,bus2=BMT1432406B.1.2.3,Phases=3,Linecode=CABA06_3_3,Length=0.032324000,Units=km
new line.TR2139656 bus1=BMT1432406B.1.2.3,bus2=BMT177302259.1.2.3,Phases=3,Linecode=CABA06_3_3,Length=0.039639000,Units=km
...
