2024_89_CemigReconfigurationCases/1_AlimsCemig/MNM08/MNM08Transformadores.dss
new transformer.1321826 Phases=3,Windings=2,Buses=[BMT155239535.1.2.3 BBT94352491.1.2.3.0],Conns=[delta wye],kvs=[13.80 0.22],kvas=[30.000000000 30.000000000],Taps=[1,1.000000000],XHL=3.560000000,%loadloss=1.820000000,%noloadloss=0.500000000
new transformer.1417572 Phases=3,Windings=2,Buses=[BMT176400701.1.2.3 BBT154554666.1.2.3.0],Conns=[delta wye],kvs=[13.80 0.22],kvas=[45.000000000 45.000000000],Taps=[1,1.000000000],XHL=3.640000000,%loadloss=1.670000000,%noloadloss=0.433000000
new transformer.1528622 Phases=3,Windings=2,Buses=[BMT178200004.1.2.3 BBT178199633.1.2.3.0],Conns=[delta wye],kvs=[13.80 0.22],kvas=[45.000000000 45.000000000],Taps=[1,1.000000000],XHL=3.640000000,%loadloss=1.670000000,%noloadloss=0.433000000
new transformer.396679 Phases=3,Windings=2,Buses=[BMT176400639.1.2.3 BBT1721849.1.2.3.0],Conns=[delta wye],kvs=[13.80 0.22],kvas=[75.000000000 75.000000000],Taps=[1,1.000000000],XHL=3.720000000,%loadloss=1.470000000,%noloadloss=0.393000000
new transformer.396938 Phases=3,Windings=2,Buses=[BMT152554246.1.2.3 BBT1725174.1.2.3.0],Conns=[delta wye],kvs=[13.80 0.22],kvas=[75.000000000 75.000000000],Taps=[1,1.000000000],XHL=3.720000000,%loadloss=1.470000000,%noloadloss=0.393000000
new transformer.431847 Phases=1,Windings=3,Buses=[BMT178456439.2 BBT1849522.1.0 BBT1849522.0.2],Conns=[wye wye wye],kvs=[7.967 0.12 0.12],kvas=[10.000000000 10.000000000 10.000000000],Taps=[1,1.000000000,1.000000000],XHL=1.560000000,XHT=,XLT=,%loadloss=1.950000000,%noloadloss=0.500000000
new transformer.437167 Phases=3,Windings=2,Buses=[BMT177302260.1.2.3 BBT1862318.1.2.3.0],Conns=[delta wye],kvs=[13.80 0.22],kvas=[45.000000000 45.000000000],Taps=[1,1.000000000],XHL=3.640000000,%loadloss=1.670000000,%noloadloss=0.433000000
new transformer.452007 Phases=3,Windings=2,Buses=[BMT176400637.1.2.3 BBT1979197.1.2.3.0],Conns=[delta wye],kvs=[13.80 0.22],kvas=[30.000000000 30.000000000],Taps=[1,1.000000000],XHL=3.560000000,%loadloss=1.820000000,%noloadloss=0.500000000
new transformer.452021 Phases=3,Windings=2,Buses=[BMT178199997.1.2.3 BBT1979267.1.2.3.0],Conns=[delta wye],kvs=[13.80 0.22],kvas=[75.000000000 75.000000000],Taps=[1,1.000000000],XHL=3.720000000,%loadloss=1.470000000,%noloadloss=0.393000000
new transformer.452035 Phases=1,Windings=3,Buses=[BMT130867368.2 BBT1979393.1.0 BBT1979393.0.2],Conns=[wye wye wye],kvs=[7.967 0.12 0.12],kvas=[35.000000000 35.000000000 35.000000000],Taps=[1,1.000000000,1.000000000],XHL=2.060000000,XHT=,XLT=,%loadloss=1.410000000,%noloadloss=0.385000000
new transformer.452063 Phases=1,Windings=3,Buses=[BMT178200000.3 BBT1979645.1.0 BBT1979645.0.2],Conns=[wye wye wye],kvs=[7.967 0.12 0.12],kvas=[35.000000000 35.000000000 35.000000000],Taps=[1,1.000000000,1.000000000],XHL=2.060000000,XHT=,XLT=,%loadloss=1.410000000,%noloadloss=0.385000000
new transformer.452077 Phases=3,Windings=2,Buses=[BMT177302273.1.2.3 BBT1979771.1.2.3.0],Conns=[delta wye],kvs=[13.80 0.22],kvas=[100.000000000 100.000000000],Taps=[1,1.000000000],XHL=3.770000000,%loadloss=1.330000000,%noloadloss=0.390000000
new transformer.452105 Phases=3,Windings=2,Buses=[BMT177831477.1.2.3 BBT1979911.1.2.3.0],Conns=[delta wye],kvs=[13.80 0.22],kvas=[30.000000000 30.000000000],Taps=[1,1.000000000],XHL=3.560000000,%loadloss=1.820000000,%noloadloss=0.500000000
new transformer.452119 Phases=3,Windings=2,Buses=[BMT177302269.1.2.3 BBT1980058.1.2.3.0],Conns=[delta wye],kvs=[13.80 0.22],kvas=[45.000000000 45.000000000],Taps=[1,1.000000000],XHL=3.640000000,%loadloss=1.670000000,%noloadloss=0.433000000
new transformer.452133 Phases=3,Windings=2,Buses=[BMT171016654.1.2.3 BBT1980254.1.2.3.0],Conns=[delta wye],kvs=[13.80 0.22],kvas=[30.000000000 30.000000000],Taps=[1,1.000000000],XHL=3.560000000,%loadloss=1.820000000,%noloadloss=0.500000000
new transformer.452161 Phases=3,Windings=2,Buses=[BMT176505138.1.2.3 BBT1980443.1.2.3.0],Conns=[delta wye],kvs=[13.80 0.22],kvas=[75.000000000 75.000000000],Taps=[1,1.000000000],XHL=3.720000000,%loadloss=1.470000000,%noloadloss=0.393000000
new transformer.452175 Phases=1,Windings=3,Buses=[BMT176505133.3 BBT1980618.1.0 BBT1980618.0.2],Conns=[wye wye wye],kvs=[7.967 0.12 0.12],kvas=[25.000000000 25.000000000 25.000000000],Taps=[1,1.000000000,1.000000000],XHL=1.950000000,XHT=,XLT=,%loadloss=1.560000000,%noloadloss=0.360000000
new transformer.452189 Phases=3,Windings=2,Buses=[BMT178548724.1.2.3 BBT1980744.1.2.3.0],Conns=[delta wye],kvs=[13.80 0.22],kvas=[75.000000000 75.000000000],Taps=[1,1.000000000],XHL=3.720000000,%loadloss=1.470000000,%noloadloss=0.393000000
new transformer.452203 Phases=3,Windings=2,Buses=[BMT178200003.1.2.3 BBT1980884.1.2.3.0],Conns=[delta wye],kvs=[13.80 0.22],kvas=[45.000000000 45.000000000],Taps=[1,1.000000000],XHL=3.640000000,%loadloss=1.670000000,%noloadloss=0.433000000
new transformer.452224 Phases=3,Windings=2,Buses=[BMT176505131.1.2.3 BBT1980982.1.2.3.0],Conns=[delta wye],kvs=[13.80 0.22],kvas=[75.000000000 75.000000000],Taps=[1,1.000000000],XHL=3.720000000,%loadloss=1.470000000,%noloadloss=0.393000000
new transformer.452238 Phases=1,Windings=3,Buses=[BMT130867375.3 BBT1981157.1.0 BBT1981157.0.2],Conns=[wye wye wye],kvs=[7.967 0.12 0.12],kvas=[35.000000000 35.000000000 35.000000000],Taps=[1,1.000000000,1.000000000],XHL=2.060000000,XHT=,XLT=,%loadloss=1.410000000,%noloadloss=0.385000000
new transformer.452252 Phases=1,Windings=3,Buses=[BMT177302263.1 BBT1981346.1.0 BBT1981346.0.2],Conns=[wye wye wye],kvs=[7.967 0.12 0.12],kvas=[25.000000000 25.000000000 25.000000000],Taps=[1,1.000000000,1.000000000],XHL=1.950000000,XHT=,XLT=,%loadloss=1.560000000,%noloadloss=0.360000000
new transformer.452266 Phases=3,Windings=2,Buses=[BMT174274780.1.2.3 BBT1981472.1.2.3.0],Conns=[delta wye],kvs=[13.80 0.22],kvas=[30.000000000 30.000000000],Taps=[1,1.000000000],XHL=3.560000000,%loadloss=1.820000000,%noloadloss=0.500000000
new transformer.452280 Phases=3,Windings=2,Buses=[BMT176515432.1.2.3 BBT1981577.1.2.3.0],Conns=[delta wye],kvs=[13.80 0.22],kvas=[150.000000000 150.000000000],Taps=[1,1.000000000],XHL=3.810000000,%loadloss=1.230000000,%noloadloss=0.323000000
new transformer.452287 Phases=3,Windings=2,Buses=[BMT177024000.1.2.3 BBT1981710.1.2.3.0],Conns=[delta wye],kvs=[13.80 0.22],kvas=[30.000000000 30.000000000],Taps=[1,1.000000000],XHL=3.560000000,%loadloss=1.820000000,%noloadloss=0.500000000
new transformer.1170017 Phases=1,Windings=3,Buses=[BMT170355713.3 BBT36293049.1.0 BBT36293049.0.2],Conns=[wye wye wye],kvs=[7.967 0.12 0.12],kvas=[15.000000000 15.000000000 15.000000000],Taps=[1,1.000000000,1.000000000],XHL=1.770000000,XHT=,XLT=,%loadloss=1.770000000,%noloadloss=0.433000000
new transformer.1315309 Phases=1,Windings=3,Buses=[BMT101737085.1 BBT91298867.1.0 BBT91298867.0.2],Conns=[wye wye wye],kvs=[7.967 0.12 0.12],kvas=[5.000000000 5.000000000 5.000000000],Taps=[1,1.000000000,1.000000000],XHL=1.360000000,XHT=,XLT=,%loadloss=2.100000000,%noloadloss=0.700000000
new transformer.1446181 Phases=3,Windings=2,Buses=[BMT176400699.1.2.3 BBT160781344.1.2.3.0],Conns=[delta wye],kvs=[13.80 0.22],kvas=[75.000000000 75.000000000],Taps=[1,1.000000000],XHL=3.720000000,%loadloss=1.470000000,%noloadloss=0.393000000
new transformer.398072 Phases=3,Windings=2,Buses=[BMT101736959.1.2.3 BBT1730676.1.2.3.0],Conns=[delta wye],kvs=[13.80 0.22],kvas=[75.000000000 75.000000000],Taps=[1,1.000000000],XHL=3.720000000,%loadloss=1.470000000,%noloadloss=0.393000000
new transformer.427871 Phases=3,Windings=2,Buses=[BMT101736700.1.2.3 BBT1836656.1.2.3.0],Conns=[delta wye],kvs=[13.80 0.22],kvas=[45.000000000 45.000000000],Taps=[1,1.000000000],XHL=3.640000000,%loadloss=1.670000000,%noloadloss=0.433000000
new transformer.428088 Phases=1,Windings=3,Buses=[BMT178456430.1 BBT1837342.1.0 BBT1837342.0.2],Conns=[wye wye wye],kvs=[7.967 0.12 0.12],kvas=[10.000000000 10.000000000 10.000000000],Taps=[1,1.000000000,1.000000000],XHL=1.560000000,XHT=,XLT=,%loadloss=1.950000000,%noloadloss=0.500000000
new transformer.501497 Phases=1,Windings=3,Buses=[BMT158683009.3 BBT2241942.1.0 BBT2241942.0.2],Conns=[wye wye wye],kvs=[7.967 0.12 0.12],kvas=[10.000000000 10.000000000 10.000000000],Taps=[1,1.000000000,1.000000000],XHL=1.560000000,XHT=,XLT=,%loadloss=1.950000000,%noloadloss=0.500000000
new transformer.537484 Phases=3,Windings=2,Buses=[BMT101736721.1.2.3 BBT2529691.1.2.3.0],Conns=[delta wye],kvs=[13.80 0.22],kvas=[75.000000000 75.000000000],Taps=[1,1.000000000],XHL=3.720000000,%loadloss=1.470000000,%noloadloss=0.393000000
new transformer.598867 Phases=1,Windings=3,Buses=[BMT101736966.2 BBT3183512.1.0 BBT3183512.0.2],Conns=[wye wye wye],kvs=[7.967 0.12 0.12],kvas=[15.000000000 15.000000000 15.000000000],Taps=[1,1.000000000,1.000000000],XHL=1.770000000,XHT=,XLT=,%loadloss=1.770000000,%noloadloss=0.433000000
new transformer.1304634 Phases=1,Windings=3,Buses=[BMT130867382.3 BBT109289651.1.0 BBT109289651.0.2],Conns=[wye wye wye],kvs=[7.967 0.12 0.12],kvas=[35.000000000 35.000000000 35.000000000],Taps=[1,1.000000000,1.000000000],XHL=2.060000000,XHT=,XLT=,%loadloss=1.410000000,%noloadloss=0.385000000
new transformer.1392979 Phases=3,Windings=2,Buses=[BMT177302262.1.2.3 BBT150612913.1.2.3.0],Conns=[delta wye],kvs=[13.80 0.22],kvas=[45.000000000 45.000000000],Taps=[1,1.000000000],XHL=3.640000000,%loadloss=1.670000000,%noloadloss=0.433000000
new transformer.1486930 Phases=3,Windings=2,Buses=[BMT176505136.1.2.3 BBT169345331.1.2.3.0],Conns=[delta wye],kvs=[13.80 0.22],kvas=[45.000000000 45.000000000],Taps=[1,1.000000000],XHL=3.640000000,%loadloss=1.670000000,%noloadloss=0.433000000
new transformer.1492026 Phases=1,Windings=3,Buses=[BMT170355712.3 BBT170355715.1.0 BBT170355715.0.2],Conns=[wye wye wye],kvs=[7.967 0.12 0.12],kvas=[35.000000000 35.000000000 35.000000000],Taps=[1,1.000000000,1.000000000],XHL=2.060000000,XHT=,XLT=,%loadloss=1.410000000,%noloadloss=0.385000000
new transformer.1492088 Phases=1,Windings=3,Buses=[BMT178456437.2 BBT170372330.1.0 BBT170372330.0.2],Conns=[wye wye wye],kvs=[7.967 0.12 0.12],kvas=[15.000000000 15.000000000 15.000000000],Taps=[1,1.000000000,1.000000000],XHL=1.770000000,XHT=,XLT=,%loadloss=1.770000000,%noloadloss=0.433000000
new transformer.1508142 Phases=1,Windings=3,Buses=[BMT178456434.3 BBT173812582.1.0 BBT173812582.0.2],Conns=[wye wye wye],kvs=[7.967 0.12 0.12],kvas=[10.000000000 10.000000000 10.000000000],Taps=[1,1.000000000,1.000000000],XHL=1.560000000,XHT=,XLT=,%loadloss=1.950000000,%noloadloss=0.500000000
new transformer.421984 Phases=1,Windings=3,Buses=[BMT161630321.3 BBT1796707.1.0 BBT1796707.0.2],Conns=[wye wye wye],kvs=[7.967 0.12 0.12],kvas=[10.000000000 10.000000000 10.000000000],Taps=[1,1.000000000,1.000000000],XHL=1.560000000,XHT=,XLT=,%loadloss=1.950000000,%noloadloss=0.500000000
new transformer.427381 Phases=3,Windings=2,Buses=[BMT176505135.1.2.3 BBT1835263.1.2.3.0],Conns=[delta wye],kvs=[13.80 0.22],kvas=[45.000000000 45.000000000],Taps=[1,1.000000000],XHL=3.640000000,%loadloss=1.670000000,%noloadloss=0.433000000
new transformer.431749 Phases=1,Windings=3,Buses=[BMT101737078.1 BBT1849214.1.0 BBT1849214.0.2],Conns=[wye wye wye],kvs=[7.967 0.12 0.12],kvas=[10.000000000 10.000000000 10.000000000],Taps=[1,1.000000000,1.000000000],XHL=1.560000000,XHT=,XLT=,%loadloss=1.950000000,%noloadloss=0.500000000
new transformer.452882 Phases=1,Windings=3,Buses=[BMT175581675.1 BBT1987009.1.0 BBT1987009.0.2],Conns=[wye wye wye],kvs=[7.967 0.12 0.12],kvas=[10.000000000 10.000000000 10.000000000],Taps=[1,1.000000000,1.000000000],XHL=1.560000000,XHT=,XLT=,%loadloss=1.950000000,%noloadloss=0.500000000
new transformer.452987 Phases=1,Windings=3,Buses=[BMT101737253.3 BBT1987842.1.0 BBT1987842.0.2],Conns=[wye wye wye],kvs=[7.967 0.12 0.12],kvas=[10.000000000 10.000000000 10.000000000],Taps=[1,1.000000000,1.000000000],XHL=1.560000000,XHT=,XLT=,%loadloss=1.950000000,%noloadloss=0.500000000
new transformer.453043 Phases=3,Windings=2,Buses=[BMT174274773.1.2.3 BBT1988395.1.2.3.0],Conns=[delta wye],kvs=[13.80 0.22],kvas=[45.000000000 45.000000000],Taps=[1,1.000000000],XHL=3.640000000,%loadloss=1.670000000,%noloadloss=0.433000000
new transformer.453099 Phases=3,Windings=2,Buses=[BMT175581672.1.2.3 BBT1988997.1.2.3.0],Conns=[delta wye],kvs=[13.80 0.22],kvas=[45.000000000 45.000000000],Taps=[1,1.000000000],XHL=3.640000000,%loadloss=1.670000000,%noloadloss=0.433000000
new transformer.453155 Phases=3,Windings=2,Buses=[BMT157000589.1.2.3 BBT1989333.1.2.3.0],Conns=[delta wye],kvs=[13.80 0.22],kvas=[45.000000000 45.000000000],Taps=[1,1.000000000],XHL=3.640000000,%loadloss=1.670000000,%noloadloss=0.433000000
new transformer.453183 Phases=1,Windings=3,Buses=[BMT175581674.1 BBT1989536.1.0 BBT1989536.0.2],Conns=[wye wye wye],kvs=[7.967 0.12 0.12],kvas=[35.000000000 35.000000000 35.000000000],Taps=[1,1.000000000,1.000000000],XHL=2.060000000,XHT=,XLT=,%loadloss=1.410000000,%noloadloss=0.385000000
new transformer.453204 Phases=3,Windings=2,Buses=[BMT176505489.1.2.3 BBT1989627.1.2.3.0],Conns=[delta wye],kvs=[13.80 0.22],kvas=[75.000000000 75.000000000],Taps=[1,1.000000000],XHL=3.720000000,%loadloss=1.470000000,%noloadloss=0.393000000
new transformer.453232 Phases=3,Windings=2,Buses=[BMT177024002.1.2.3 BBT1989802.1.2.3.0],Conns=[delta wye],kvs=[13.80 0.22],kvas=[75.000000000 75.000000000],Taps=[1,1.000000000],XHL=3.720000000,%loadloss=1.470000000,%noloadloss=0.393000000
new transformer.453260 Phases=3,Windings=2,Buses=[BMT157000590.1.2.3 BBT1990110.1.2.3.0],Conns=[delta wye],kvs=[13.80 0.22],kvas=[30.000000000 30.000000000],Taps=[1,1.000000000],XHL=3.560000000,%loadloss=1.820000000,%noloadloss=0.500000000
new transformer.491634 Phases=1,Windings=3,Buses=[BMT101736728.2 BBT2203414.1.0 BBT2203414.0.2],Conns=[wye wye wye],kvs=[7.967 0.12 0.12],kvas=[15.000000000 15.000000000 15.000000000],Taps=[1,1.000000000,1.000000000],XHL=1.770000000,XHT=,XLT=,%loadloss=1.770000000,%noloadloss=0.433000000
new transformer.1376139 Phases=3,Windings=2,Buses=[BMT175581673.1.2.3 BBT135476301.1.2.3.0],Conns=[delta wye],kvs=[13.80 0.22],kvas=[45.000000000 45.000000000],Taps=[1,1.000000000],XHL=3.640000000,%loadloss=1.670000000,%noloadloss=0.433000000
new transformer.1437659 Phases=1,Windings=3,Buses=[BMT158683011.3 BBT158682755.1.0 BBT158682755.0.2],Conns=[wye wye wye],kvs=[7.967 0.12 0.12],kvas=[15.000000000 15.000000000 15.000000000],Taps=[1,1.000000000,1.000000000],XHL=1.770000000,XHT=,XLT=,%loadloss=1.770000000,%noloadloss=0.433000000
new transformer.1518018 Phases=3,Windings=2,Buses=[BMT176164034.1.2.3 BBT176164016.1.2.3.0],Conns=[delta wye],kvs=[13.80 0.22],kvas=[45.000000000 45.000000000],Taps=[1,1.000000000],XHL=3.640000000,%loadloss=1.670000000,%noloadloss=0.433000000
new transformer.420143 Phases=3,Windings=2,Buses=[BMT178456429.1.2.3 BBT1792780.1.2.3.0],Conns=[delta wye],kvs=[13.80 0.22],kvas=[45.000000000 45.000000000],Taps=[1,1.000000000],XHL=3.640000000,%loadloss=1.670000000,%noloadloss=0.433000000
new transformer.430083 Phases=1,Windings=3,Buses=[BMT101737337.2 BBT1843726.1.0 BBT1843726.0.2],Conns=[wye wye wye],kvs=[7.967 0.12 0.12],kvas=[5.000000000 5.000000000 5.000000000],Taps=[1,1.000000000,1.000000000],XHL=1.360000000,XHT=,XLT=,%loadloss=2.100000000,%noloadloss=0.700000000
new transformer.430090 Phases=1,Windings=3,Buses=[BMT101737330.1 BBT1843740.1.0 BBT1843740.0.2],Conns=[wye wye wye],kvs=[7.967 0.12 0.12],kvas=[5.000000000 5.000000000 5.000000000],Taps=[1,1.000000000,1.000000000],XHL=1.360000000,XHT=,XLT=,%loadloss=2.100000000,%noloadloss=0.700000000
new transformer.439701 Phases=3,Windings=2,Buses=[BMT177302277.1.2.3 BBT1871593.1.2.3.0],Conns=[delta wye],kvs=[13.80 0.22],kvas=[75.000000000 75.000000000],Taps=[1,1.000000000],XHL=3.720000000,%loadloss=1.470000000,%noloadloss=0.393000000
new transformer.453281 Phases=3,Windings=2,Buses=[BMT174274776.1.2.3 BBT1990229.1.2.3.0],Conns=[delta wye],kvs=[13.80 0.22],kvas=[75.000000000 75.000000000],Taps=[1,1.000000000],XHL=3.720000000,%loadloss=1.470000000,%noloadloss=0.393000000
new transformer.453309 Phases=3,Windings=2,Buses=[BMT177024038.1.2.3 BBT1990467.1.2.3.0],Conns=[delta wye],kvs=[13.80 0.22],kvas=[30.000000000 30.000000000],Taps=[1,1.000000000],XHL=3.560000000,%loadloss=1.820000000,%noloadloss=0.500000000
new transformer.453316 Phases=3,Windings=2,Buses=[BMT152554247.1.2.3 BBT1990607.1.2.3.0],Conns=[delta wye],kvs=[13.80 0.22],kvas=[30.000000000 30.000000000],Taps=[1,1.000000000],XHL=3.560000000,%loadloss=1.820000000,%noloadloss=0.500000000
new transformer.453330 Phases=3,Windings=2,Buses=[BMT174274777.1.2.3 BBT1990663.1.2.3.0],Conns=[delta wye],kvs=[13.80 0.22],kvas=[45.000000000 45.000000000],Taps=[1,1.000000000],XHL=3.640000000,%loadloss=1.670000000,%noloadloss=0.433000000
new transformer.453344 Phases=3,Windings=2,Buses=[BMT177024036.1.2.3 BBT1990789.1.2.3.0],Conns=[delta wye],kvs=[13.80 0.22],kvas=[45.000000000 45.000000000],Taps=[1,1.000000000],XHL=3.640000000,%loadloss=1.670000000,%noloadloss=0.433000000
new transformer.453358 Phases=3,Windings=2,Buses=[BMT176515424.1.2.3 BBT1990922.1.2.3.0],Conns=[delta wye],kvs=[13.80 0.22],kvas=[45.000000000 45.000000000],Taps=[1,1.000000000],XHL=3.640000000,%loadloss=1.670000000,%noloadloss=0.433000000
new transformer.1361880 Phases=1,Windings=3,Buses=[BMT161334827.3 BBT125111009.1.0 BBT125111009.0.2],Conns=[wye wye wye],kvs=[7.967 0.12 0.12],kvas=[15.000000000 15.000000000 15.000000000],Taps=[1,1.000000000,1.000000000],XHL=1.770000000,XHT=,XLT=,%loadloss=1.770000000,%noloadloss=0.433000000
new transformer.1362118 Phases=3,Windings=2,Buses=[BMT155239534.1.2.3 BBT125305105.1.2.3.0],Conns=[delta wye],kvs=[13.80 0.22],kvas=[45.000000000 45.000000000],Taps=[1,1.000000000],XHL=3.640000000,%loadloss=1.670000000,%noloadloss=0.433000000
new transformer.1449929 Phases=1,Windings=3,Buses=[BMT161630547.3 BBT161630251.1.0 BBT161630251.0.2],Conns=[wye wye wye],kvs=[7.967 0.12 0.12],kvas=[10.000000000 10.000000000 10.000000000],Taps=[1,1.000000000,1.000000000],XHL=1.560000000,XHT=,XLT=,%loadloss=1.950000000,%noloadloss=0.500000000
new transformer.1461506 Phases=1,Windings=3,Buses=[BMT170355714.3 BBT164647737.1.0 BBT164647737.0.2],Conns=[wye wye wye],kvs=[7.967 0.12 0.12],kvas=[35.000000000 35.000000000 35.000000000],Taps=[1,1.000000000,1.000000000],XHL=2.060000000,XHT=,XLT=,%loadloss=1.410000000,%noloadloss=0.385000000
new transformer.1492942 Phases=3,Windings=2,Buses=[BMT176515433.1.2.3 BBT170555847.1.2.3.0],Conns=[delta wye],kvs=[13.80 0.22],kvas=[45.000000000 45.000000000],Taps=[1,1.000000000],XHL=3.640000000,%loadloss=1.670000000,%noloadloss=0.433000000
new transformer.1508598 Phases=1,Windings=3,Buses=[BMT173911948.1 BBT173911922.1.0 BBT173911922.0.2],Conns=[wye wye wye],kvs=[7.967 0.12 0.12],kvas=[10.000000000 10.000000000 10.000000000],Taps=[1,1.000000000,1.000000000],XHL=1.560000000,XHT=,XLT=,%loadloss=1.950000000,%noloadloss=0.500000000
new transformer.428956 Phases=1,Windings=3,Buses=[BMT173810563.1 BBT1839743.1.0 BBT1839743.0.2],Conns=[wye wye wye],kvs=[7.967 0.12 0.12],kvas=[15.000000000 15.000000000 15.000000000],Taps=[1,1.000000000,1.000000000],XHL=1.770000000,XHT=,XLT=,%loadloss=1.770000000,%noloadloss=0.433000000
new transformer.455962 Phases=1,Windings=3,Buses=[BMT101737064.1 BBT2002367.1.0 BBT2002367.0.2],Conns=[wye wye wye],kvs=[7.967 0.12 0.12],kvas=[15.000000000 15.000000000 15.000000000],Taps=[1,1.000000000,1.000000000],XHL=1.770000000,XHT=,XLT=,%loadloss=1.770000000,%noloadloss=0.433000000
new transformer.452301 Phases=3,Windings=2,Buses=[BMT174274778.1.2.3 BBT1981766.1.2.3.0],Conns=[delta wye],kvs=[13.80 0.22],kvas=[75.000000000 75.000000000],Taps=[1,1.000000000],XHL=3.720000000,%loadloss=1.470000000,%noloadloss=0.393000000
new transformer.452315 Phases=3,Windings=2,Buses=[BMT176515434.1.2.3 BBT1981941.1.2.3.0],Conns=[delta wye],kvs=[13.80 0.22],kvas=[75.000000000 75.000000000],Taps=[1,1.000000000],XHL=3.720000000,%loadloss=1.470000000,%noloadloss=0.393000000
new transformer.452329 Phases=3,Windings=2,Buses=[BMT176505174.1.2.3 BBT1982116.1.2.3.0],Conns=[delta wye],kvs=[13.80 0.22],kvas=[45.000000000 45.000000000],Taps=[1,1.000000000],XHL=3.640000000,%loadloss=1.670000000,%noloadloss=0.433000000
new transformer.452343 Phases=3,Windings=2,Buses=[BMT154164078.1.2.3 BBT1982305.1.2.3.0],Conns=[delta wye],kvs=[13.80 0.22],kvas=[45.000000000 45.000000000],Taps=[1,1.000000000],XHL=3.640000000,%loadloss=1.670000000,%noloadloss=0.433000000
new transformer.452357 Phases=3,Windings=2,Buses=[BMT176515427.1.2.3 BBT1982438.1.2.3.0],Conns=[delta wye],kvs=[13.80 0.22],kvas=[45.000000000 45.000000000],Taps=[1,1.000000000],XHL=3.640000000,%loadloss=1.670000000,%noloadloss=0.433000000
new transformer.452371 Phases=3,Windings=2,Buses=[BMT176515426.1.2.3 BBT1982571.1.2.3.0],Conns=[delta wye],kvs=[13.80 0.22],kvas=[30.000000000 30.000000000],Taps=[1,1.000000000],XHL=3.560000000,%loadloss=1.820000000,%noloadloss=0.500000000
new transformer.452385 Phases=3,Windings=2,Buses=[BMT101737190.1.2.3 BBT1982599.1.2.3.0],Conns=[delta wye],kvs=[13.80 0.22],kvas=[30.000000000 30.000000000],Taps=[1,1.000000000],XHL=3.560000000,%loadloss=1.820000000,%noloadloss=0.500000000
new transformer.452399 Phases=3,Windings=2,Buses=[BMT176515423.1.2.3 BBT1982711.1.2.3.0],Conns=[delta wye],kvs=[13.80 0.22],kvas=[30.000000000 30.000000000],Taps=[1,1.000000000],XHL=3.560000000,%loadloss=1.820000000,%noloadloss=0.500000000
new transformer.452413 Phases=3,Windings=2,Buses=[BMT178548721.1.2.3 BBT1982851.1.2.3.0],Conns=[delta wye],kvs=[13.80 0.22],kvas=[30.000000000 30.000000000],Taps=[1,1.000000000],XHL=3.560000000,%loadloss=1.820000000,%noloadloss=0.500000000
new transformer.452427 Phases=3,Windings=2,Buses=[BMT101737176.1.2.3 BBT1982984.1.2.3.0],Conns=[delta wye],kvs=[13.80 0.22],kvas=[30.000000000 30.000000000],Taps=[1,1.000000000],XHL=3.560000000,%loadloss=1.820000000,%noloadloss=0.500000000
new transformer.452441 Phases=3,Windings=2,Buses=[BMT101736511.1.2.3 BBT1983117.1.2.3.0],Conns=[delta wye],kvs=[13.80 0.22],kvas=[30.000000000 30.000000000],Taps=[1,1.000000000],XHL=3.560000000,%loadloss=1.820000000,%noloadloss=0.500000000
new transformer.452455 Phases=3,Windings=2,Buses=[BMT101736518.1.2.3 BBT1983215.1.2.3.0],Conns=[delta wye],kvs=[13.80 0.22],kvas=[45.000000000 45.000000000],Taps=[1,1.000000000],XHL=3.640000000,%loadloss=1.670000000,%noloadloss=0.433000000
new transformer.452469 Phases=3,Windings=2,Buses=[BMT177831479.1.2.3 BBT1983404.1.2.3.0],Conns=[delta wye],kvs=[13.80 0.22],kvas=[75.000000000 75.000000000],Taps=[1,1.000000000],XHL=3.720000000,%loadloss=1.470000000,%noloadloss=0.393000000
new transformer.452483 Phases=3,Windings=2,Buses=[BMT101736504.1.2.3 BBT1983509.1.2.3.0],Conns=[delta wye],kvs=[13.80 0.22],kvas=[30.000000000 30.000000000],Taps=[1,1.000000000],XHL=3.560000000,%loadloss=1.820000000,%noloadloss=0.500000000
new transformer.452553 Phases=3,Windings=2,Buses=[BMT155239531.1.2.3 BBT1984223.1.2.3.0],Conns=[delta wye],kvs=[13.80 0.22],kvas=[30.000000000 30.000000000],Taps=[1,1.000000000],XHL=3.560000000,%loadloss=1.820000000,%noloadloss=0.500000000
new transformer.452581 Phases=1,Windings=3,Buses=[BMT171016845.1 BBT1984475.1.0 BBT1984475.0.2],Conns=[wye wye wye],kvs=[7.967 0.12 0.12],kvas=[25.000000000 25.000000000 25.000000000],Taps=[1,1.000000000,1.000000000],XHL=1.950000000,XHT=,XLT=,%loadloss=1.560000000,%noloadloss=0.360000000
new transformer.529392 Phases=1,Windings=3,Buses=[BMT161334826.3 BBT2445250.1.0 BBT2445250.0.2],Conns=[wye wye wye],kvs=[7.967 0.12 0.12],kvas=[5.000000000 5.000000000 5.000000000],Taps=[1,1.000000000,1.000000000],XHL=1.360000000,XHT=,XLT=,%loadloss=2.100000000,%noloadloss=0.700000000
new transformer.535342 Phases=1,Windings=3,Buses=[BMT177302278.3 BBT2512184.1.0 BBT2512184.0.2],Conns=[wye wye wye],kvs=[7.967 0.12 0.12],kvas=[15.000000000 15.000000000 15.000000000],Taps=[1,1.000000000,1.000000000],XHL=1.770000000,XHT=,XLT=,%loadloss=1.770000000,%noloadloss=0.433000000
new transformer.535489 Phases=3,Windings=2,Buses=[BMT178456441.1.2.3 BBT2515012.1.2.3.0],Conns=[delta wye],kvs=[13.80 0.22],kvas=[45.000000000 45.000000000],Taps=[1,1.000000000],XHL=3.640000000,%loadloss=1.670000000,%noloadloss=0.433000000
new transformer.546752 Phases=1,Windings=3,Buses=[BMT173911947.1 BBT2639591.1.0 BBT2639591.0.2],Conns=[wye wye wye],kvs=[7.967 0.12 0.12],kvas=[10.000000000 10.000000000 10.000000000],Taps=[1,1.000000000,1.000000000],XHL=1.560000000,XHT=,XLT=,%loadloss=1.950000000,%noloadloss=0.500000000
new transformer.1372583 Phases=3,Windings=2,Buses=[BMT177302271.1.2.3 BBT133106241.1.2.3.0],Conns=[delta wye],kvs=[13.80 0.22],kvas=[45.000000000 45.000000000],Taps=[1,1.000000000],XHL=3.640000000,%loadloss=1.670000000,%noloadloss=0.433000000
new transformer.1526622 Phases=3,Windings=2,Buses=[BMT177831480.1.2.3 BBT177831485.1.2.3.0],Conns=[delta wye],kvs=[13.80 0.22],kvas=[45.000000000 45.000000000],Taps=[1,1.000000000],XHL=3.640000000,%loadloss=1.670000000,%noloadloss=0.433000000
new transformer.421123 Phases=1,Windings=3,Buses=[BMT178456431.2 BBT1794880.1.0 BBT1794880.0.2],Conns=[wye wye wye],kvs=[7.967 0.12 0.12],kvas=[10.000000000 10.000000000 10.000000000],Taps=[1,1.000000000,1.000000000],XHL=1.560000000,XHT=,XLT=,%loadloss=1.950000000,%noloadloss=0.500000000
new transformer.438749 Phases=3,Windings=2,Buses=[BMT177302259.1.2.3 BBT1868177.1.2.3.0],Conns=[delta wye],kvs=[13.80 0.22],kvas=[45.000000000 45.000000000],Taps=[1,1.000000000],XHL=3.640000000,%loadloss=1.670000000,%noloadloss=0.433000000
new transformer.455906 Phases=3,Windings=2,Buses=[BMT158683006.1.2.3 BBT2002255.1.2.3.0],Conns=[delta wye],kvs=[13.80 0.22],kvas=[30.000000000 30.000000000],Taps=[1,1.000000000],XHL=3.560000000,%loadloss=1.820000000,%noloadloss=0.500000000
new transformer.455934 Phases=1,Windings=3,Buses=[BMT161630319.3 BBT2002311.1.0 BBT2002311.0.2],Conns=[wye wye wye],kvs=[7.967 0.12 0.12],kvas=[15.000000000 15.000000000 15.000000000],Taps=[1,1.000000000,1.000000000],XHL=1.770000000,XHT=,XLT=,%loadloss=1.770000000,%noloadloss=0.433000000
new transformer.460911 Phases=1,Windings=3,Buses=[BMT161630324.3 BBT2013469.1.0 BBT2013469.0.2],Conns=[wye wye wye],kvs=[7.967 0.12 0.12],kvas=[10.000000000 10.000000000 10.000000000],Taps=[1,1.000000000,1.000000000],XHL=1.560000000,XHT=,XLT=,%loadloss=1.950000000,%noloadloss=0.500000000
new transformer.562082 Phases=1,Windings=3,Buses=[BMT177302267.1 BBT2844453.1.0 BBT2844453.0.2],Conns=[wye wye wye],kvs=[7.967 0.12 0.12],kvas=[35.000000000 35.000000000 35.000000000],Taps=[1,1.000000000,1.000000000],XHL=2.060000000,XHT=,XLT=,%loadloss=1.410000000,%noloadloss=0.385000000
new transformer.1416031 Phases=3,Windings=2,Buses=[BMT154164077.1.2.3 BBT154163874.1.2.3.0],Conns=[delta wye],kvs=[13.80 0.22],kvas=[75.000000000 75.000000000],Taps=[1,1.000000000],XHL=3.720000000,%loadloss=1.470000000,%noloadloss=0.393000000
new transformer.1517322 Phases=3,Windings=2,Buses=[BMT176400638.1.2.3 BBT175989713.1.2.3.0],Conns=[delta wye],kvs=[13.80 0.22],kvas=[150.000000000 150.000000000],Taps=[1,1.000000000],XHL=3.810000000,%loadloss=1.230000000,%noloadloss=0.323000000
new transformer.1529959 Phases=1,Windings=3,Buses=[BMT178456436.1 BBT178456442.1.0 BBT178456442.0.2],Conns=[wye wye wye],kvs=[7.967 0.12 0.12],kvas=[10.000000000 10.000000000 10.000000000],Taps=[1,1.000000000,1.000000000],XHL=1.560000000,XHT=,XLT=,%loadloss=1.950000000,%noloadloss=0.500000000
new transformer.624403 Phases=1,Windings=3,Buses=[BMT101736742.1 BBT3965678.1.0 BBT3965678.0.2],Conns=[wye wye wye],kvs=[7.967 0.12 0.12],kvas=[10.000000000 10.000000000 10.000000000],Taps=[1,1.000000000,1.000000000],XHL=1.560000000,XHT=,XLT=,%loadloss=1.950000000,%noloadloss=0.500000000
new transformer.1393802 Phases=1,Windings=3,Buses=[BMT161630325.3 BBT148905334.1.0 BBT148905334.0.2],Conns=[wye wye wye],kvs=[7.967 0.12 0.12],kvas=[5.000000000 5.000000000 5.000000000],Taps=[1,1.000000000,1.000000000],XHL=1.360000000,XHT=,XLT=,%loadloss=2.100000000,%noloadloss=0.700000000
new transformer.1405007 Phases=3,Windings=2,Buses=[BMT151738130.1.2.3 BBT151637730.1.2.3.0],Conns=[delta wye],kvs=[13.80 0.22],kvas=[75.000000000 75.000000000],Taps=[1,1.000000000],XHL=3.720000000,%loadloss=1.470000000,%noloadloss=0.393000000
new transformer.429418 Phases=1,Windings=3,Buses=[BMT173810564.1 BBT1841178.1.0 BBT1841178.0.2],Conns=[wye wye wye],kvs=[7.967 0.12 0.12],kvas=[15.000000000 15.000000000 15.000000000],Taps=[1,1.000000000,1.000000000],XHL=1.770000000,XHT=,XLT=,%loadloss=1.770000000,%noloadloss=0.433000000
new transformer.511031 Phases=3,Windings=2,Buses=[BMT176400700.1.2.3 BBT2287414.1.2.3.0],Conns=[delta wye],kvs=[13.80 0.22],kvas=[45.000000000 45.000000000],Taps=[1,1.000000000],XHL=3.640000000,%loadloss=1.670000000,%noloadloss=0.433000000
