2024_89_CemigReconfigurationCases/1_AlimsCemig/MNM08/MNM08SegmentosBT.dss
new line.10029930 bus1=BBT2557173.1.3.0,bus2=BBT2568100.1.3.0,Phases=2,Linecode=BT505_BT505_5_2_1,Length=0.018981000,Units=km
new line.10029937 bus1=BBT2557173.1.3.0,bus2=BBT2568114.1.3.0,Phases=2,Linecode=BT505_BT505_5_2_1,Length=0.014428000,Units=km
new line.10029944 bus1=BBT2557173.1.3.0,bus2=BBT2568093.1.3.0,Phases=2,Linecode=BT505_BT505_5_2_1,Length=0.019933000,Units=km
new line.10040430 bus1=BBT2559539.1.3.0,bus2=BBT2559553.1.3.0,Phases=2,Linecode=BT519_BT519_5_2_1,Length=0.022370000,Units=km
new line.10040465 bus1=BBT2559511.1.3.0,bus2=BBT2559539.1.3.0,Phases=2,Linecode=BT519_BT519_5_2_1,Length=0.028472000,Units=km
new line.10040493 bus1=BBT2559504.1.3.0,bus2=BBT2559511.1.3.0,Phases=2,Linecode=BT519_BT519_5_2_1,Length=0.021849000,Units=km
new line.10040500 bus1=BBT2559504.1.3.0,bus2=BBT2559567.1.3.0,Phases=2,Linecode=BT519_BT519_5_2_1,Length=0.023269000,Units=km
new line.10040528 bus1=BBT2559553.1.3.0,bus2=BBT2559560.1.3.0,Phases=2,Linecode=BT519_BT519_5_2_1,Length=0.020257000,Units=km
new line.10040570 bus1=BBT2559546.1.3.0,bus2=BBT2559581.1.3.0,Phases=2,Linecode=BT519_BT519_5_2_1,Length=0.020133000,Units=km
new line.10040598 bus1=BBT2559560.1.3.0,bus2=BBT2559574.1.3.0,Phases=2,Linecode=BT519_BT519_5_2_1,Length=0.019706000,Units=km
new line.10040626 bus1=BBT2559532.1.3.0,bus2=BBT2559546.1.3.0,Phases=2,Linecode=BT519_BT519_5_2_1,Length=0.024197000,Units=km
new line.10040668 bus1=BBT2559525.1.3.0,bus2=BBT2559532.1.3.0,Phases=2,Linecode=BT519_BT519_5_2_1,Length=0.024525000,Units=km
new line.10040696 bus1=BBT2559518.1.3.0,bus2=BBT2559525.1.3.0,Phases=2,Linecode=BT519_BT519_5_2_1,Length=0.018609000,Units=km
new line.10040738 bus1=BBT2559497.1.3.0,bus2=BBT2559504.1.3.0,Phases=2,Linecode=BT519_BT519_5_2_1,Length=0.020008000,Units=km
new line.10040745 bus1=BBT2559497.1.3.0,bus2=BBT2559518.1.3.0,Phases=2,Linecode=BT519_BT519_5_2_1,Length=0.020257000,Units=km
new line.10040766 bus1=BBT2559455.1.3.0,bus2=BBT2559497.1.3.0,Phases=2,Linecode=BT519_BT519_5_2_1,Length=0.019706000,Units=km
new line.10071685 bus1=BBT2565769.2.3.0,bus2=BBT2565776.2.3.0,Phases=2,Linecode=BT304_BT304_5_2_1,Length=0.013607000,Units=km
new line.10071692 bus1=BBT2565769.2.3.0,bus2=BBT2567127.2.3.0,Phases=2,Linecode=BT304_BT304_5_2_1,Length=0.020624000,Units=km
new line.10071720 bus1=BBT2565776.2.3.0,bus2=BBT2565783.2.3.0,Phases=2,Linecode=BT304_BT304_5_2_1,Length=0.017007000,Units=km
new line.10071741 bus1=BBT2565783.2.3.0,bus2=BBT2567113.2.3.0,Phases=2,Linecode=BT304_BT304_5_2_1,Length=0.017471000,Units=km
new line.10071769 bus1=BBT2567113.2.3.0,bus2=BBT2567120.2.3.0,Phases=2,Linecode=BT304_BT304_5_2_1,Length=0.028313000,Units=km
new line.10071804 bus1=BBT2567169.2.3.0,bus2=BBT2567176.2.3.0,Phases=2,Linecode=BT304_BT304_5_2_1,Length=0.017036000,Units=km
new line.10071825 bus1=BBT2567162.2.3.0,bus2=BBT2567169.2.3.0,Phases=2,Linecode=BT304_BT304_5_2_1,Length=0.016131000,Units=km
new line.10071846 bus1=BBT2567155.2.3.0,bus2=BBT2567162.2.3.0,Phases=2,Linecode=BT304_BT304_5_2_1,Length=0.018981000,Units=km
new line.10071965 bus1=BBT2567183.2.3.0,bus2=BBT2567190.2.3.0,Phases=2,Linecode=BT304_BT304_5_2_1,Length=0.017500000,Units=km
new line.10071993 bus1=BBT2567148.2.3.0,bus2=BBT2567183.2.3.0,Phases=2,Linecode=BT304_BT304_5_2_1,Length=0.021032000,Units=km
new line.10072000 bus1=BBT2567148.2.3.0,bus2=BBT2567274.2.3.0,Phases=2,Linecode=BT304_BT304_5_2_1,Length=0.017812000,Units=km
new line.10072049 bus1=BBT2567141.2.3.0,bus2=BBT2567148.2.3.0,Phases=2,Linecode=BT304_BT304_5_2_1,Length=0.010821000,Units=km
new line.10072070 bus1=BBT2567134.2.3.0,bus2=BBT2567155.2.3.0,Phases=2,Linecode=BT304_BT304_5_2_1,Length=0.013898000,Units=km
new line.10072077 bus1=BBT2567134.2.3.0,bus2=BBT2567141.2.3.0,Phases=2,Linecode=BT304_BT304_5_2_1,Length=0.009491000,Units=km
new line.10072098 bus1=BBT2567127.2.3.0,bus2=BBT2567134.2.3.0,Phases=2,Linecode=BT304_BT304_5_2_1,Length=0.019217000,Units=km
new line.10072154 bus1=BBT2567309.1.3.0,bus2=BBT2567316.1.3.0,Phases=2,Linecode=BT304_BT304_5_2_1,Length=0.019731000,Units=km
new line.10072175 bus1=BBT2567302.1.3.0,bus2=BBT2567309.1.3.0,Phases=2,Linecode=BT304_BT304_5_2_1,Length=0.019933000,Units=km
new line.10072210 bus1=BBT2567295.1.3.0,bus2=BBT2567302.1.3.0,Phases=2,Linecode=BT304_BT304_5_2_1,Length=0.016038000,Units=km
new line.10072238 bus1=BBT2567211.1.3.0,bus2=BBT2567260.1.3.0,Phases=2,Linecode=BT304_BT304_5_2_1,Length=0.016131000,Units=km
new line.10072266 bus1=BBT2567204.1.3.0,bus2=BBT2567225.1.3.0,Phases=2,Linecode=BT304_BT304_5_2_1,Length=0.019706000,Units=km
new line.10072294 bus1=BBT2567225.1.3.0,bus2=BBT2567232.1.3.0,Phases=2,Linecode=BT304_BT304_5_2_1,Length=0.018365000,Units=km
new line.10072336 bus1=BBT2567281.1.3.0,bus2=BBT2567288.1.3.0,Phases=2,Linecode=BT304_BT304_5_2_1,Length=0.020624000,Units=km
new line.10072350 bus1=BBT2567253.1.3.0,bus2=BBT2567295.1.3.0,Phases=2,Linecode=BT304_BT304_5_2_1,Length=0.021596000,Units=km
new line.10072357 bus1=BBT2567253.1.3.0,bus2=BBT2567281.1.3.0,Phases=2,Linecode=BT304_BT304_5_2_1,Length=0.014324000,Units=km
new line.10072392 bus1=BBT2567260.1.3.0,bus2=BBT2567267.1.3.0,Phases=2,Linecode=BT304_BT304_5_2_1,Length=0.019933000,Units=km
new line.10072448 bus1=BBT2567190.2.3.0,bus2=BBT2567197.2.3.0,Phases=2,Linecode=BT304_BT304_5_2_1,Length=0.014872000,Units=km
new line.10072476 bus1=BBT2567316.1.3.0,bus2=BBT2567323.1.3.0,Phases=2,Linecode=BT304_BT304_5_2_1,Length=0.012654000,Units=km
new line.10072532 bus1=BBT2567239.1.3.0,bus2=BBT2567246.1.3.0,Phases=2,Linecode=BT304_BT304_5_2_1,Length=0.013898000,Units=km
new line.10072560 bus1=BBT2567232.1.3.0,bus2=BBT2567239.1.3.0,Phases=2,Linecode=BT304_BT304_5_2_1,Length=0.022370000,Units=km
new line.10080778 bus1=BBT2567218.1.3.0,bus2=BBT2567211.1.3.0,Phases=2,Linecode=BT304_BT304_5_2_1,Length=0.008948000,Units=km
new line.10080785 bus1=BBT2567218.1.3.0,bus2=BBT2567204.1.3.0,Phases=2,Linecode=BT304_BT304_5_2_1,Length=0.010775000,Units=km
new line.10080792 bus1=BBT2567218.1.3.0,bus2=BBT2567253.1.3.0,Phases=2,Linecode=BT304_BT304_5_2_1,Length=0.022857000,Units=km
new line.10083193 bus1=BBT2568100.1.3.0,bus2=BBT2568156.1.3.0,Phases=2,Linecode=BT505_BT505_5_2_1,Length=0.014219000,Units=km
new line.10083214 bus1=BBT2568156.1.3.0,bus2=BBT2568163.1.3.0,Phases=2,Linecode=BT505_BT505_5_2_1,Length=0.016286000,Units=km
new line.10083228 bus1=BBT2568163.1.3.0,bus2=BBT2568170.1.3.0,Phases=2,Linecode=BT505_BT505_5_2_1,Length=0.016162000,Units=km
new line.10083249 bus1=BBT2568170.1.3.0,bus2=BBT2568177.1.3.0,Phases=2,Linecode=BT505_BT505_5_2_1,Length=0.013607000,Units=km
new line.10083263 bus1=BBT2568177.1.3.0,bus2=BBT2568184.1.3.0,Phases=2,Linecode=BT505_BT505_5_2_1,Length=0.014872000,Units=km
new line.10083284 bus1=BBT2568184.1.3.0,bus2=BBT2568191.1.3.0,Phases=2,Linecode=BT505_BT505_5_2_1,Length=0.015818000,Units=km
new line.10083347 bus1=BBT2568226.1.3.0,bus2=BBT2568233.1.3.0,Phases=2,Linecode=BT505_BT505_5_2_1,Length=0.017727000,Units=km
new line.10083368 bus1=BBT2568219.1.3.0,bus2=BBT2568226.1.3.0,Phases=2,Linecode=BT505_BT505_5_2_1,Length=0.015006000,Units=km
new line.10083375 bus1=BBT2568219.1.3.0,bus2=BBT2568261.1.3.0,Phases=2,Linecode=BT505_BT505_5_2_1,Length=0.017212000,Units=km
new line.10083396 bus1=BBT2568212.1.3.0,bus2=BBT2568219.1.3.0,Phases=2,Linecode=BT505_BT505_5_2_1,Length=0.017036000,Units=km
new line.10083417 bus1=BBT2568198.1.3.0,bus2=BBT2568212.1.3.0,Phases=2,Linecode=BT505_BT505_5_2_1,Length=0.014042000,Units=km
new line.10083438 bus1=BBT2568114.1.3.0,bus2=BBT2568198.1.3.0,Phases=2,Linecode=BT505_BT505_5_2_1,Length=0.015040000,Units=km
new line.10083459 bus1=BBT2568093.1.3.0,bus2=BBT2568240.1.3.0,Phases=2,Linecode=BT505_BT505_5_2_1,Length=0.015238000,Units=km
new line.10083466 bus1=BBT2568093.1.3.0,bus2=BBT2568107.1.3.0,Phases=2,Linecode=BT505_BT505_5_2_1,Length=0.018392000,Units=km
new line.10083494 bus1=BBT2568240.1.3.0,bus2=BBT2568247.1.3.0,Phases=2,Linecode=BT505_BT505_5_2_1,Length=0.018035000,Units=km
new line.10083515 bus1=BBT2568247.1.3.0,bus2=BBT2568254.1.3.0,Phases=2,Linecode=BT505_BT505_5_2_1,Length=0.012212000,Units=km
new line.10083557 bus1=BBT2568282.1.3.0,bus2=BBT2568289.1.3.0,Phases=2,Linecode=BT505_BT505_5_2_1,Length=0.009438000,Units=km
new line.10083578 bus1=BBT2568275.1.3.0,bus2=BBT2568282.1.3.0,Phases=2,Linecode=BT505_BT505_5_2_1,Length=0.019034000,Units=km
new line.10083599 bus1=BBT2568107.1.3.0,bus2=BBT2568275.1.3.0,Phases=2,Linecode=BT505_BT505_5_2_1,Length=0.012654000,Units=km
new line.10083648 bus1=BBT2568415.2.3.0,bus2=BBT2568422.2.3.0,Phases=2,Linecode=BT304_BT304_5_2_1,Length=0.010004000,Units=km
new line.10083676 bus1=BBT2568408.2.3.0,bus2=BBT2568415.2.3.0,Phases=2,Linecode=BT304_BT304_5_2_1,Length=0.018118000,Units=km
new line.10083711 bus1=BBT2568401.2.3.0,bus2=BBT2568408.2.3.0,Phases=2,Linecode=BT304_BT304_5_2_1,Length=0.014219000,Units=km
new line.10083739 bus1=BBT2568450.2.3.0,bus2=BBT2568457.2.3.0,Phases=2,Linecode=BT304_BT304_5_2_1,Length=0.018447000,Units=km
new line.10083802 bus1=BBT2568296.2.3.0,bus2=BBT2568303.2.3.0,Phases=2,Linecode=BT304_BT304_5_2_1,Length=0.010004000,Units=km
new line.10083823 bus1=BBT2568303.2.3.0,bus2=BBT2568310.2.3.0,Phases=2,Linecode=BT304_BT304_5_2_1,Length=0.015531000,Units=km
new line.10083844 bus1=BBT2568261.1.3.0,bus2=BBT2568268.1.3.0,Phases=2,Linecode=BT505_BT505_5_2_1,Length=0.017124000,Units=km
new line.10083865 bus1=BBT2568331.2.3.0,bus2=BBT2568338.2.3.0,Phases=2,Linecode=BT304_BT304_5_2_1,Length=0.017270000,Units=km
new line.10083886 bus1=BBT2568338.2.3.0,bus2=BBT2568345.2.3.0,Phases=2,Linecode=BT304_BT304_5_2_1,Length=0.018035000,Units=km
new line.10083900 bus1=BBT2568345.2.3.0,bus2=BBT2568352.2.3.0,Phases=2,Linecode=BT304_BT304_5_2_1,Length=0.018796000,Units=km
new line.10083921 bus1=BBT2568352.2.3.0,bus2=BBT2568359.2.3.0,Phases=2,Linecode=BT304_BT304_5_2_1,Length=0.014324000,Units=km
new line.10083942 bus1=BBT2568359.2.3.0,bus2=BBT2568366.2.3.0,Phases=2,Linecode=BT304_BT304_5_2_1,Length=0.019243000,Units=km
new line.10083984 bus1=BBT2568443.2.3.0,bus2=BBT2568450.2.3.0,Phases=2,Linecode=BT304_BT304_5_2_1,Length=0.010445000,Units=km
new line.10084005 bus1=BBT2568436.2.3.0,bus2=BBT2568443.2.3.0,Phases=2,Linecode=BT304_BT304_5_2_1,Length=0.014219000,Units=km
new line.10084040 bus1=BBT2568394.2.3.0,bus2=BBT2568401.2.3.0,Phases=2,Linecode=BT304_BT304_5_2_1,Length=0.014872000,Units=km
new line.10084054 bus1=BBT2568429.2.3.0,bus2=BBT2568436.2.3.0,Phases=2,Linecode=BT304_BT304_5_2_1,Length=0.021549000,Units=km
new line.10084068 bus1=BBT2568387.2.3.0,bus2=BBT2568394.2.3.0,Phases=2,Linecode=BT304_BT304_5_2_1,Length=0.012654000,Units=km
new line.10084089 bus1=BBT2568373.2.3.0,bus2=BBT2568380.2.3.0,Phases=2,Linecode=BT304_BT304_5_2_1,Length=0.015659000,Units=km
new line.10084103 bus1=BBT2568205.2.3.0,bus2=BBT2568296.2.3.0,Phases=2,Linecode=BT304_BT304_5_2_1,Length=0.017007000,Units=km
new line.10084110 bus1=BBT2568205.2.3.0,bus2=BBT2568373.2.3.0,Phases=2,Linecode=BT304_BT304_5_2_1,Length=0.017124000,Units=km
new line.10084117 bus1=BBT2568205.2.3.0,bus2=BBT2568317.2.3.0,Phases=2,Linecode=BT304_BT304_5_2_1,Length=0.014771000,Units=km
new line.10084159 bus1=BBT2568317.2.3.0,bus2=BBT2568387.2.3.0,Phases=2,Linecode=BT304_BT304_5_2_1,Length=0.017270000,Units=km
new line.10084166 bus1=BBT2568317.2.3.0,bus2=BBT2568324.2.3.0,Phases=2,Linecode=BT304_BT304_5_2_1,Length=0.013934000,Units=km
new line.10084187 bus1=BBT2568324.2.3.0,bus2=BBT2568331.2.3.0,Phases=2,Linecode=BT304_BT304_5_2_1,Length=0.011710000,Units=km
new line.10084194 bus1=BBT2568324.2.3.0,bus2=BBT2568429.2.3.0,Phases=2,Linecode=BT304_BT304_5_2_1,Length=0.019655000,Units=km
new line.10090900 bus1=BBT2569612.1.2.3.0,bus2=BBT1980177.1.2.3.0,Phases=3,Linecode=BT107_BT107_7_3_1,Length=0.022857000,Units=km
new line.10109030 bus1=BBT2572293.1.2.0,bus2=BBT1981248.1.2.0,Phases=2,Linecode=BT107_BT106_7_2_1,Length=0.026937000,Units=km
new line.10512398 bus1=BBT2639591.1.2.0,bus2=BBT2639598.1.2.0,Phases=2,Linecode=BT518_BT518_7_2_1,Length=0.000501000,Units=km
new line.11256050 bus1=BBT2730003.1.2.3.0,bus2=BBT2730010.1.2.3.0,Phases=3,Linecode=BT810_BT810_4_3_4,Length=0.034799000,Units=km
new line.11256057 bus1=BBT2730003.2.3.0,bus2=BBT3884548.2.3.0,Phases=2,Linecode=BT808_BT808_4_2_3,Length=0.039865000,Units=km
new line.11395735 bus1=BBT2751192.1.2.3.0,bus2=BBT2751199.1.2.3.0,Phases=3,Linecode=BT810_BT810_4_3_4,Length=0.037351000,Units=km
new line.11932187 bus1=BBT2844467.1.2.0,bus2=BBT2844488.1.2.0,Phases=2,Linecode=BT808_BT808_4_2_3,Length=0.031966000,Units=km
new line.11932194 bus1=BBT2844467.1.2.0,bus2=BBT2844481.1.2.0,Phases=2,Linecode=BT807_BT807_4_2_3,Length=0.039941000,Units=km
new line.11932201 bus1=BBT2844467.1.2.0,bus2=BBT2844509.1.2.0,Phases=2,Linecode=BT808_BT808_4_2_3,Length=0.043098000,Units=km
new line.11932257 bus1=BBT2844460.1.2.0,bus2=BBT2844467.1.2.0,Phases=2,Linecode=BT807_BT807_4_2_3,Length=0.036415000,Units=km
new line.11932264 bus1=BBT2844453.1.2.0,bus2=BBT2844460.1.2.0,Phases=2,Linecode=BT513_BT513_7_2_1,Length=0.000501000,Units=km
new line.11932271 bus1=BBT2844460.1.2.0,bus2=BBT2844474.1.2.0,Phases=2,Linecode=BT807_BT807_4_2_3,Length=0.039941000,Units=km
new line.11932299 bus1=BBT2844509.1.2.0,bus2=BBT2844516.1.2.0,Phases=2,Linecode=BT808_BT808_4_2_3,Length=0.038642000,Units=km
new line.11932306 bus1=BBT2844509.1.2.0,bus2=BBT2844523.1.2.0,Phases=2,Linecode=BT808_BT808_4_2_3,Length=0.035861000,Units=km
new line.11932348 bus1=BBT2844523.1.2.0,bus2=BBT2844530.1.2.0,Phases=2,Linecode=BT808_BT808_4_2_3,Length=0.041453000,Units=km
new line.11932383 bus1=BBT2844530.1.2.0,bus2=BBT2844537.1.2.0,Phases=2,Linecode=BT808_BT808_4_2_3,Length=0.033629000,Units=km
new line.11932390 bus1=BBT2844530.1.2.0,bus2=BBT2844544.1.2.0,Phases=2,Linecode=BT808_BT808_4_2_3,Length=0.042737000,Units=km
new line.11932418 bus1=BBT2844537.1.2.0,bus2=BBT4021615.1.2.0,Phases=2,Linecode=BT808_BT808_4_2_3,Length=0.034028000,Units=km
new line.11932432 bus1=BBT2844474.1.2.0,bus2=BBT2844495.1.2.0,Phases=2,Linecode=BT807_BT807_4_2_3,Length=0.034190000,Units=km
new line.11932439 bus1=BBT2844544.1.2.0,bus2=BBT2844551.1.2.0,Phases=2,Linecode=BT808_BT808_4_2_3,Length=0.025090000,Units=km
new line.11932460 bus1=BBT2844495.1.2.0,bus2=BBT2844502.1.2.0,Phases=2,Linecode=BT807_BT807_4_2_3,Length=0.034554000,Units=km
new line.11932495 bus1=BBT2844551.1.2.0,bus2=BBT4545782.1.2.0,Phases=2,Linecode=BT808_BT808_4_2_3,Length=0.013934000,Units=km
new line.11932516 bus1=BBT2844579.1.2.3.0,bus2=BBT1836705.1.2.3.0,Phases=3,Linecode=BT803_BT803_4_3_4,Length=0.023355000,Units=km
new line.11932523 bus1=BBT2844579.1.3.0,bus2=BBT2844586.1.3.0,Phases=2,Linecode=BT808_BT808_4_2_3,Length=0.040870000,Units=km
new line.11932579 bus1=BBT2844593.1.2.0,bus2=BBT2844600.1.2.0,Phases=2,Linecode=BT808_BT808_4_2_3,Length=0.032709000,Units=km
new line.11932607 bus1=BBT2844600.1.2.0,bus2=BBT2844607.1.2.0,Phases=2,Linecode=BT808_BT808_4_2_3,Length=0.024708000,Units=km
new line.11932628 bus1=BBT2844607.1.2.0,bus2=BBT2844614.1.2.0,Phases=2,Linecode=BT808_BT808_4_2_3,Length=0.023419000,Units=km
new line.11932649 bus1=BBT2844614.1.2.0,bus2=BBT2844621.1.2.0,Phases=2,Linecode=BT808_BT808_4_2_3,Length=0.023779000,Units=km
new line.11932670 bus1=BBT2844621.1.2.0,bus2=BBT4303960.1.2.0,Phases=2,Linecode=BT808_BT808_4_2_3,Length=0.031397000,Units=km
new line.11932698 bus1=BBT2844628.1.2.0,bus2=BBT2844635.1.2.0,Phases=2,Linecode=BT808_BT808_4_2_3,Length=0.030426000,Units=km
new line.12482520 bus1=BBT2957384.1.2.0,bus2=BBT3386484.1.2.0,Phases=2,Linecode=BT808_BT808_4_2_3,Length=0.041453000,Units=km
new line.13029668 bus1=BBT3183512.1.2.0,bus2=BBT3183519.1.2.0,Phases=2,Linecode=BT518_BT518_7_2_1,Length=0.000501000,Units=km
new line.13254508 bus1=BBT4220919.1.2.3.0,bus2=BBT3446299.1.2.3.0,Phases=3,Linecode=BT803_BT803_4_3_4,Length=0.042171000,Units=km
new line.13254543 bus1=BBT3446299.1.2.3.0,bus2=BBT4220926.1.2.3.0,Phases=3,Linecode=BT803_BT803_4_3_4,Length=0.039411000,Units=km
new line.13273814 bus1=BBT3468517.1.2.0,bus2=BBT3468524.1.2.0,Phases=2,Linecode=BT808_BT808_4_2_3,Length=0.031397000,Units=km
new line.13273828 bus1=BBT3468524.1.2.0,bus2=BBT3468531.1.2.0,Phases=2,Linecode=BT808_BT808_4_2_3,Length=0.031029000,Units=km
new line.13394704 bus1=BBT3771064.1.2.3.0,bus2=BBT3771071.1.2.3.0,Phases=3,Linecode=BT810_BT810_4_3_4,Length=0.041453000,Units=km
new line.13404504 bus1=BBT4220926.1.2.3.0,bus2=BBT4220933.1.2.3.0,Phases=3,Linecode=BT803_BT803_4_3_4,Length=0.038486000,Units=km
new line.13412813 bus1=BBT3884548.2.3.0,bus2=BBT3884555.2.3.0,Phases=2,Linecode=BT808_BT808_4_2_3,Length=0.041802000,Units=km
new line.13412827 bus1=BBT3884555.2.3.0,bus2=BBT3884562.2.3.0,Phases=2,Linecode=BT808_BT808_4_2_3,Length=0.032324000,Units=km
new line.13446518 bus1=BBT3965741.1.2.0,bus2=BBT3965748.1.2.0,Phases=2,Linecode=BT808_BT808_4_2_3,Length=0.039614000,Units=km
new line.13446553 bus1=BBT3965734.1.2.0,bus2=BBT3965741.1.2.0,Phases=2,Linecode=BT808_BT808_4_2_3,Length=0.040327000,Units=km
new line.13446581 bus1=BBT3965727.1.2.0,bus2=BBT3965734.1.2.0,Phases=2,Linecode=BT808_BT808_4_2_3,Length=0.040327000,Units=km
new line.13446602 bus1=BBT3965720.1.2.0,bus2=BBT3965727.1.2.0,Phases=2,Linecode=BT808_BT808_4_2_3,Length=0.038913000,Units=km
new line.13446623 bus1=BBT3965713.1.2.0,bus2=BBT3965720.1.2.0,Phases=2,Linecode=BT808_BT808_4_2_3,Length=0.038913000,Units=km
new line.13446637 bus1=BBT3965706.1.2.0,bus2=BBT3965713.1.2.0,Phases=2,Linecode=BT808_BT808_4_2_3,Length=0.038913000,Units=km
new line.13446658 bus1=BBT3965699.1.2.0,bus2=BBT3965706.1.2.0,Phases=2,Linecode=BT808_BT808_4_2_3,Length=0.038913000,Units=km
new line.13446679 bus1=BBT3965692.1.2.0,bus2=BBT3965699.1.2.0,Phases=2,Linecode=BT808_BT808_4_2_3,Length=0.038913000,Units=km
new line.13446707 bus1=BBT3965685.1.2.0,bus2=BBT3965692.1.2.0,Phases=2,Linecode=BT808_BT808_4_2_3,Length=0.038913000,Units=km
new line.13446714 bus1=BBT3965678.1.2.0,bus2=BBT3965685.1.2.0,Phases=2,Linecode=BT521_BT521_7_2_1,Length=0.000501000,Units=km
new line.13446721 bus1=BBT3965685.1.2.0,bus2=BBT3965797.1.2.0,Phases=2,Linecode=BT808_BT808_4_2_3,Length=0.038913000,Units=km
new line.13446742 bus1=BBT3965797.1.2.0,bus2=BBT3965804.1.2.0,Phases=2,Linecode=BT808_BT808_4_2_3,Length=0.038913000,Units=km
new line.13446756 bus1=BBT3965804.1.2.0,bus2=BBT3965811.1.2.0,Phases=2,Linecode=BT808_BT808_4_2_3,Length=0.038199000,Units=km
new line.13446770 bus1=BBT3965811.1.2.0,bus2=BBT3965818.1.2.0,Phases=2,Linecode=BT808_BT808_4_2_3,Length=0.038913000,Units=km
new line.13446805 bus1=BBT3965818.1.2.0,bus2=BBT3965825.1.2.0,Phases=2,Linecode=BT808_BT808_4_2_3,Length=0.039639000,Units=km
new line.13446819 bus1=BBT3965825.1.2.0,bus2=BBT3965832.1.2.0,Phases=2,Linecode=BT808_BT808_4_2_3,Length=0.039639000,Units=km
new line.13446840 bus1=BBT3965832.1.2.0,bus2=BBT3965839.1.2.0,Phases=2,Linecode=BT808_BT808_4_2_3,Length=0.039639000,Units=km
new line.13446854 bus1=BBT3965839.1.2.0,bus2=BBT3965846.1.2.0,Phases=2,Linecode=BT808_BT808_4_2_3,Length=0.039639000,Units=km
new line.13446875 bus1=BBT3965846.1.2.0,bus2=BBT3965867.1.2.0,Phases=2,Linecode=BT808_BT808_4_2_3,Length=0.039639000,Units=km
new line.13507334 bus1=BBT4220933.1.2.3.0,bus2=BBT4220940.1.2.3.0,Phases=3,Linecode=BT810_BT810_4_3_4,Length=0.022835000,Units=km
new line.13507348 bus1=BBT4220940.1.2.3.0,bus2=BBT4220947.1.2.3.0,Phases=3,Linecode=BT810_BT810_4_3_4,Length=0.034799000,Units=km
new line.13627286 bus1=BBT4545782.1.2.0,bus2=BBT4545789.1.2.0,Phases=2,Linecode=BT808_BT808_4_2_3,Length=0.036415000,Units=km
new line.13674354 bus1=BBT4663060.1.2.3.0,bus2=BBT4663053.1.2.3.0,Phases=3,Linecode=BT803_BT803_4_3_4,Length=0.039941000,Units=km
new line.13674382 bus1=BBT27135950.1.2.3.0,bus2=BBT4663060.1.2.3.0,Phases=3,Linecode=BT803_BT803_4_3_4,Length=0.041802000,Units=km
new line.16606598 bus1=BBT31526448.1.2.3.0,bus2=BBT31526455.1.2.3.0,Phases=3,Linecode=BT803_BT803_4_3_4,Length=0.042171000,Units=km
new line.16606605 bus1=BBT31526441.1.2.3.0,bus2=BBT31526448.1.2.3.0,Phases=3,Linecode=BT803_BT803_4_3_4,Length=0.025090000,Units=km
new line.16608796 bus1=BBT31601229.1.2.3.0,bus2=BBT1982956.1.2.3.0,Phases=3,Linecode=BT809_BT809_4_3_4,Length=0.017471000,Units=km
new line.16608803 bus1=BBT31601229.1.2.3.0,bus2=BBT31601495.1.2.3.0,Phases=3,Linecode=BT810_BT810_4_3_4,Length=0.014324000,Units=km
new line.16608810 bus1=BBT31601229.1.2.3.0,bus2=BBT31601348.1.2.3.0,Phases=3,Linecode=BT810_BT810_4_3_4,Length=0.030377000,Units=km
new line.16773597 bus1=BBT169357919.1.2.3.0,bus2=BBT59909656.1.2.3.0,Phases=3,Linecode=BT803_BT803_4_3_4,Length=0.040513000,Units=km
new line.16773604 bus1=BBT59909656.1.2.3.0,bus2=BBT59909663.1.2.3.0,Phases=3,Linecode=BT803_BT803_4_3_4,Length=0.040870000,Units=km
new line.16788073 bus1=BBT36293049.1.2.0,bus2=BBT36293056.1.2.0,Phases=2,Linecode=BT508_BT508_7_2_1,Length=0.000501000,Units=km
new line.17033612 bus1=BBT3386484.1.2.0,bus2=BBT44652036.1.2.0,Phases=2,Linecode=BT808_BT808_4_2_3,Length=0.040513000,Units=km
new line.17161390 bus1=BBT2286441.1.2.0,bus2=BBT50935369.1.2.0,Phases=2,Linecode=BT808_BT808_4_2_3,Length=0.038642000,Units=km
new line.17315971 bus1=BBT1982823.1.2.3.0,bus2=BBT59918238.1.2.3.0,Phases=3,Linecode=BT808_BT808_4_3_3,Length=0.043881000,Units=km
new line.17538704 bus1=BBT1983488.1.2.3.0,bus2=BBT72982758.1.2.3.0,Phases=3,Linecode=BT810_BT810_4_3_4,Length=0.037177000,Units=km
new line.17704254 bus1=BBT2751199.1.2.3.0,bus2=BBT79950229.1.2.3.0,Phases=3,Linecode=BT810_BT810_4_3_4,Length=0.043098000,Units=km
new line.17747570 bus1=BBT109289651.1.2.0,bus2=BBT1981171.1.2.0,Phases=2,Linecode=BT513_BT513_7_2_1,Length=0.000501000,Units=km
new line.17800952 bus1=BBT3468531.1.2.0,bus2=BBT86749679.1.2.0,Phases=2,Linecode=BT808_BT808_4_2_3,Length=0.043098000,Units=km
new line.17848895 bus1=BBT31526455.1.2.3.0,bus2=BBT90047134.1.2.3.0,Phases=3,Linecode=BT803_BT803_4_3_4,Length=0.035482000,Units=km
new line.17854390 bus1=BBT2287568.1.2.3.0,bus2=BBT93597226.1.2.3.0,Phases=3,Linecode=BT810_BT810_4_3_4,Length=0.039015000,Units=km
new line.17854397 bus1=BBT93597226.1.2.3.0,bus2=BBT93597233.1.2.3.0,Phases=3,Linecode=BT810_BT810_4_3_4,Length=0.040327000,Units=km
new line.17854404 bus1=BBT93597233.1.2.3.0,bus2=BBT93597240.1.2.3.0,Phases=3,Linecode=BT810_BT810_4_3_4,Length=0.044029000,Units=km
new line.17865520 bus1=BBT2286441.1.2.0,bus2=BBT90754029.1.2.0,Phases=2,Linecode=BT808_BT808_4_2_3,Length=0.037962000,Units=km
new line.17880612 bus1=BBT91298867.1.2.0,bus2=BBT91298874.1.2.0,Phases=2,Linecode=BT304_BT304_7_2_1,Length=0.000501000,Units=km
new line.17931257 bus1=BBT1725202.1.2.3.0,bus2=BBT93721371.1.2.3.0,Phases=3,Linecode=BT805_BT805_4_3_4,Length=0.033149000,Units=km
new line.17943990 bus1=BBT94352491.1.2.3.0,bus2=BBT94352498.1.2.3.0,Phases=3,Linecode=BT521_BT521_7_3_1,Length=0.000501000,Units=km
new line.17970464 bus1=BBT1980534.1.2.3.0,bus2=BBT95519699.1.2.3.0,Phases=3,Linecode=BT810_BT810_4_3_4,Length=0.034942000,Units=km
new line.18018120 bus1=BBT93597240.1.2.3.0,bus2=BBT123437967.1.2.3.0,Phases=3,Linecode=BT810_BT810_4_3_4,Length=0.036070000,Units=km
new line.18018127 bus1=BBT123437967.1.2.3.0,bus2=BBT123437974.1.2.3.0,Phases=3,Linecode=BT810_BT810_4_3_4,Length=0.035482000,Units=km
new line.18047562 bus1=BBT2512205.1.2.0,bus2=BBT103872505.1.2.0,Phases=2,Linecode=BT808_BT808_4_2_3,Length=0.039866000,Units=km
new line.18142916 bus1=BBT31601348.1.2.3.0,bus2=BBT120062833.1.2.3.0,Phases=3,Linecode=BT810_BT810_4_3_4,Length=0.040870000,Units=km
new line.18152821 bus1=BBT130868369.1.2.3.0,bus2=BBT178199663.1.2.3.0,Phases=3,Linecode=BT803_BT803_4_3_4,Length=0.033255000,Units=km
new line.18152828 bus1=BBT130868369.1.2.3.0,bus2=BBT130868495.1.2.3.0,Phases=3,Linecode=BT803_BT803_4_3_4,Length=0.028647000,Units=km
new line.18152849 bus1=BBT130868495.1.2.3.0,bus2=BBT130868579.1.2.3.0,Phases=3,Linecode=BT803_BT803_4_3_4,Length=0.038094000,Units=km
new line.18400327 bus1=BBT125111009.1.2.0,bus2=BBT125111016.1.2.0,Phases=2,Linecode=BT518_BT518_7_2_1,Length=0.000501000,Units=km
new line.18403379 bus1=BBT125305105.1.2.3.0,bus2=BBT1984237.1.2.3.0,Phases=3,Linecode=BT521_BT521_7_3_1,Length=0.000501000,Units=km
new line.18421348 bus1=BBT1871670.1.2.3.0,bus2=BBT126446560.1.2.3.0,Phases=3,Linecode=BT810_BT810_4_3_4,Length=0.034554000,Units=km
new line.18421558 bus1=BBT27135950.1.2.3.0,bus2=BBT126464179.1.2.3.0,Phases=3,Linecode=BT803_BT803_4_3_4,Length=0.034190000,Units=km
new line.18421565 bus1=BBT126464179.1.2.3.0,bus2=BBT126464186.1.2.3.0,Phases=3,Linecode=BT803_BT803_4_3_4,Length=0.034190000,Units=km
new line.18486210 bus1=BBT27135950.1.2.3.0,bus2=BBT130418668.1.2.3.0,Phases=3,Linecode=BT803_BT803_4_3_4,Length=0.039576000,Units=km
new line.18524409 bus1=BBT133106241.1.2.3.0,bus2=BBT1980079.1.2.3.0,Phases=3,Linecode=BT518_BT518_7_3_1,Length=0.000501000,Units=km
new line.18550435 bus1=BBT1983446.1.2.3.0,bus2=BBT134691769.1.2.3.0,Phases=3,Linecode=BT810_BT810_4_3_4,Length=0.011407000,Units=km
new line.18563875 bus1=BBT135476301.1.2.3.0,bus2=BBT1988451.1.2.3.0,Phases=3,Linecode=BT518_BT518_7_3_1,Length=0.000501000,Units=km
new line.18563889 bus1=BBT1988437.1.2.3.0,bus2=BBT135476371.1.2.3.0,Phases=3,Linecode=BT803_BT803_4_3_4,Length=0.033255000,Units=km
new line.18651851 bus1=BBT169345408.1.2.3.0,bus2=BBT138743656.1.2.3.0,Phases=3,Linecode=BT810_BT810_4_3_4,Length=0.044029000,Units=km
new line.18705775 bus1=BBT150612864.1.2.3.0,bus2=BBT2512296.1.2.3.0,Phases=3,Linecode=BT803_BT803_4_3_4,Length=0.032907000,Units=km
new line.18705776 bus1=BBT150612864.1.2.3.0,bus2=BBT150612865.1.2.3.0,Phases=3,Linecode=BT803_BT803_4_3_4,Length=0.045898000,Units=km
...
