2024_89_CemigReconfigurationCases/1_AlimsCemig/MNM08/MNM08Ramais.dss
new line.RML10158042 bus1=BBT1980513.1.2.0,bus2=RML1010158042.1.2.0,Phases=2,Linecode=CABBTG05_4_2,Length=0.029000000,Units=km
new line.RML10158051 bus1=BBT1979736.1.2.0,bus2=RML1010158051.1.2.0,Phases=2,Linecode=CABBTG05_4_2,Length=0.029000000,Units=km
new line.RML10158217 bus1=BBT4021615.2.0,bus2=RML1010158217.2.0,Phases=1,Linecode=CABBTG01_4_1,Length=0.029000000,Units=km
new line.RML10158223 bus1=BBT1980093.1.2.3.0,bus2=RML1010158223.1.2.3.0,Phases=3,Linecode=CABBTG06_4_3,Length=0.029000000,Units=km
new line.RML10158224 bus1=BBT2512282.1.0,bus2=RML1010158224.1.0,Phases=1,Linecode=CABBTG01_4_1,Length=0.029000000,Units=km
new line.RML10158229 bus1=BBT1871614.1.0,bus2=RML1010158229.1.0,Phases=1,Linecode=CABBTG02_4_1,Length=0.029000000,Units=km
new line.RML10158243 bus1=BBT2410299.1.0,bus2=RML1010158243.1.0,Phases=1,Linecode=CABBTG02_4_1,Length=0.029000000,Units=km
new line.RML10158251 bus1=BBT1871600.1.0,bus2=RML1010158251.1.0,Phases=1,Linecode=CABBTG01_4_1,Length=0.029000000,Units=km
new line.RML10179262 bus1=BBT1982228.1.2.0,bus2=RML1010179262.1.2.0,Phases=2,Linecode=CABBTG05_4_2,Length=0.029000000,Units=km
new line.RML10179548 bus1=BBT3183519.1.2.0,bus2=RML1010179548.1.2.0,Phases=2,Linecode=CABBTG13_4_2,Length=0.017000000,Units=km
new line.RML10200814 bus1=BBT1983418.3.0,bus2=RML1010200814.3.0,Phases=1,Linecode=CABBTG01_4_1,Length=0.029000000,Units=km
new line.RML10200820 bus1=BBT1983439.2.3.0,bus2=RML1010200820.2.3.0,Phases=2,Linecode=CABBTG05_4_2,Length=0.029000000,Units=km
new line.RML10200855 bus1=BBT1983446.2.0,bus2=RML1010200855.2.0,Phases=1,Linecode=CABBTG01_4_1,Length=0.029000000,Units=km
new line.RML10200871 bus1=BBT1982067.1.2.3.0,bus2=RML1010200871.1.2.3.0,Phases=3,Linecode=CABBTG07_4_3,Length=0.029000000,Units=km
new line.RML10201087 bus1=BBT1979687.1.2.0,bus2=RML1010201087.1.2.0,Phases=2,Linecode=CABBTG05_4_2,Length=0.029000000,Units=km
new line.RML10201093 bus1=BBT1979687.1.2.0,bus2=RML1010201093.1.2.0,Phases=2,Linecode=CABBTG05_4_2,Length=0.029000000,Units=km
new line.RML10201250 bus1=BBT3884548.2.3.0,bus2=RML1010201250.2.3.0,Phases=2,Linecode=CABBTG05_4_2,Length=0.029000000,Units=km
new line.RML10201265 bus1=BBT1981717.1.0,bus2=RML1010201265.1.0,Phases=1,Linecode=CABBTG01_4_1,Length=0.017000000,Units=km
new line.RML10201274 bus1=BBT1980709.1.2.0,bus2=RML1010201274.1.2.0,Phases=2,Linecode=CABBTG05_4_2,Length=0.029000000,Units=km
new line.RML10201287 bus1=BBT1835284.1.2.0,bus2=RML1010201287.1.2.0,Phases=2,Linecode=CABBTG05_4_2,Length=0.029000000,Units=km
new line.RML10201303 bus1=BBT1982928.1.2.0,bus2=RML1010201303.1.2.0,Phases=2,Linecode=CABBTG05_4_2,Length=0.029000000,Units=km
new line.RML10201346 bus1=BBT31601495.1.0,bus2=RML1010201346.1.0,Phases=1,Linecode=CABBTG01_4_1,Length=0.029000000,Units=km
new line.RML10201351 bus1=BBT31601495.1.2.0,bus2=RML1010201351.1.2.0,Phases=2,Linecode=CABBTG05_4_2,Length=0.029000000,Units=km
new line.RML10201356 bus1=BBT120062833.2.3.0,bus2=RML1010201356.2.3.0,Phases=2,Linecode=CABBTG05_4_2,Length=0.029000000,Units=km
new line.RML10201360 bus1=BBT1982655.2.3.0,bus2=RML1010201360.2.3.0,Phases=2,Linecode=CABBTG05_4_2,Length=0.029000000,Units=km
new line.RML10201416 bus1=BBT1982235.1.0,bus2=RML1010201416.1.0,Phases=1,Linecode=CABBTG01_4_1,Length=0.029000000,Units=km
new line.RML10201421 bus1=BBT1982235.1.2.0,bus2=RML1010201421.1.2.0,Phases=2,Linecode=CABBTG05_4_2,Length=0.029000000,Units=km
new line.RML10201437 bus1=BBT2288072.1.0,bus2=RML1010201437.1.0,Phases=1,Linecode=CABBTG01_4_1,Length=0.029000000,Units=km
new line.RML10201442 bus1=BBT123437967.1.2.0,bus2=RML1010201442.1.2.0,Phases=2,Linecode=CABBTG05_4_2,Length=0.029000000,Units=km
new line.RML10201459 bus1=BBT1987849.1.2.0,bus2=RML1010201459.1.2.0,Phases=2,Linecode=CABBTG05_4_2,Length=0.017000000,Units=km
new line.RML10201468 bus1=BBT1987912.1.2.0,bus2=RML1010201468.1.2.0,Phases=2,Linecode=CABBTG05_4_2,Length=0.017000000,Units=km
new line.RML10202265 bus1=BBT1981493.1.2.3.0,bus2=RML1010202265.1.2.3.0,Phases=3,Linecode=CABBTG06_4_3,Length=0.029000000,Units=km
new line.RML10227991 bus1=BBT1982963.1.3.0,bus2=RML1010227991.1.3.0,Phases=2,Linecode=CABBTG05_4_2,Length=0.029000000,Units=km
new line.RML10279682 bus1=BBT2512296.1.2.3.0,bus2=RML1010279682.1.2.3.0,Phases=3,Linecode=CABBTG10_4_3,Length=0.029000000,Units=km
new line.RML10279685 bus1=BBT93597240.1.0,bus2=RML1010279685.1.0,Phases=1,Linecode=CABBTG01_4_1,Length=0.029000000,Units=km
new line.RML10279697 bus1=BBT1988430.1.2.3.0,bus2=RML1010279697.1.2.3.0,Phases=3,Linecode=CABBTG06_4_3,Length=0.029000000,Units=km
new line.RML10279702 bus1=BBT94352498.1.2.3.0,bus2=RML1010279702.1.2.3.0,Phases=3,Linecode=CABBTG06_4_3,Length=0.017000000,Units=km
new line.RML10279704 bus1=BBT1990565.1.0,bus2=RML1010279704.1.0,Phases=1,Linecode=CABBTG02_4_1,Length=0.029000000,Units=km
new line.RML10279705 bus1=BBT1990537.2.3.0,bus2=RML1010279705.2.3.0,Phases=2,Linecode=CABBTG04_4_2,Length=0.029000000,Units=km
...